AquaCrop 4.0 (June 2012) - Output created on (date) : 21/03/2014   at (time) : 15:57:23
Water content in soil profile (WCTotal layer: 0.00 - 1.55 m) and root zone (Wr with Zrx = 1.50 m)

   Day Month  Year   DAP Stage     WCTot   Wr(Zx)      Z       Wr    Wr(SAT)    Wr(FC)   Wr(exp)   Wr(sto)   Wr(sen)   Wr(PWP)
                                     mm       mm       m       mm        mm        mm        mm        mm        mm        mm
    22     9  1996    -9    0     474.8    459.8    0.00     -9.9      -9.9      -9.9      -9.9      -9.9      -9.9      -9.9
    23     9  1996    -9    0     492.7    477.6    0.00     -9.9      -9.9      -9.9      -9.9      -9.9      -9.9      -9.9
    24     9  1996    -9    0     487.5    472.4    0.00     -9.9      -9.9      -9.9      -9.9      -9.9      -9.9      -9.9
    25     9  1996    -9    0     485.7    470.5    0.00     -9.9      -9.9      -9.9      -9.9      -9.9      -9.9      -9.9
    26     9  1996    -9    0     483.0    467.8    0.00     -9.9      -9.9      -9.9      -9.9      -9.9      -9.9      -9.9
    27     9  1996    -9    0     473.4    458.3    0.00     -9.9      -9.9      -9.9      -9.9      -9.9      -9.9      -9.9
    28     9  1996    -9    0     466.4    451.2    0.00     -9.9      -9.9      -9.9      -9.9      -9.9      -9.9      -9.9
    29     9  1996    -9    0     461.5    446.5    0.00     -9.9      -9.9      -9.9      -9.9      -9.9      -9.9      -9.9
    30     9  1996    -9    0     458.6    443.6    0.00     -9.9      -9.9      -9.9      -9.9      -9.9      -9.9      -9.9
     1    10  1996    -9    0     455.6    440.6    0.00     -9.9      -9.9      -9.9      -9.9      -9.9      -9.9      -9.9
     2    10  1996    -9    0     458.7    443.7    0.00     -9.9      -9.9      -9.9      -9.9      -9.9      -9.9      -9.9
     3    10  1996    -9    0     455.4    440.4    0.00     -9.9      -9.9      -9.9      -9.9      -9.9      -9.9      -9.9
     4    10  1996    -9    0     453.2    438.2    0.00     -9.9      -9.9      -9.9      -9.9      -9.9      -9.9      -9.9
     5    10  1996    -9    0     451.7    436.7    0.00     -9.9      -9.9      -9.9      -9.9      -9.9      -9.9      -9.9
     6    10  1996    -9    0     450.7    435.7    0.00     -9.9      -9.9      -9.9      -9.9      -9.9      -9.9      -9.9
     7    10  1996    -9    0     493.7    478.7    0.00     -9.9      -9.9      -9.9      -9.9      -9.9      -9.9      -9.9
     8    10  1996    -9    0     503.1    488.1    0.00     -9.9      -9.9      -9.9      -9.9      -9.9      -9.9      -9.9
     9    10  1996    -9    0     492.8    477.6    0.00     -9.9      -9.9      -9.9      -9.9      -9.9      -9.9      -9.9
    10    10  1996    -9    0     481.7    466.4    0.00     -9.9      -9.9      -9.9      -9.9      -9.9      -9.9      -9.9
    11    10  1996    -9    0     472.4    457.2    0.00     -9.9      -9.9      -9.9      -9.9      -9.9      -9.9      -9.9
    12    10  1996    -9    0     466.1    450.9    0.00     -9.9      -9.9      -9.9      -9.9      -9.9      -9.9      -9.9
    13    10  1996    -9    0     461.1    446.0    0.00     -9.9      -9.9      -9.9      -9.9      -9.9      -9.9      -9.9
    14    10  1996    -9    0     468.4    453.4    0.00     -9.9      -9.9      -9.9      -9.9      -9.9      -9.9      -9.9
    15    10  1996    -9    0     475.2    460.2    0.00     -9.9      -9.9      -9.9      -9.9      -9.9      -9.9      -9.9
    16    10  1996    -9    0     502.1    487.1    0.00     -9.9      -9.9      -9.9      -9.9      -9.9      -9.9      -9.9
    17    10  1996    -9    0     505.2    490.1    0.00     -9.9      -9.9      -9.9      -9.9      -9.9      -9.9      -9.9
    18    10  1996    -9    0     494.5    479.3    0.00     -9.9      -9.9      -9.9      -9.9      -9.9      -9.9      -9.9
    19    10  1996    -9    0     482.8    467.5    0.00     -9.9      -9.9      -9.9      -9.9      -9.9      -9.9      -9.9
    20    10  1996    -9    0     472.7    457.5    0.00     -9.9      -9.9      -9.9      -9.9      -9.9      -9.9      -9.9
    21    10  1996    -9    0     466.2    451.1    0.00     -9.9      -9.9      -9.9      -9.9      -9.9      -9.9      -9.9
    22    10  1996    -9    0     461.8    446.8    0.00     -9.9      -9.9      -9.9      -9.9      -9.9      -9.9      -9.9
    23    10  1996    -9    0     458.3    443.3    0.00     -9.9      -9.9      -9.9      -9.9      -9.9      -9.9      -9.9
    24    10  1996    -9    0     455.3    440.3    0.00     -9.9      -9.9      -9.9      -9.9      -9.9      -9.9      -9.9
    25    10  1996    -9    0     453.6    438.6    0.00     -9.9      -9.9      -9.9      -9.9      -9.9      -9.9      -9.9
    26    10  1996    -9    0     452.2    437.2    0.00     -9.9      -9.9      -9.9      -9.9      -9.9      -9.9      -9.9
    27    10  1996    -9    0     451.2    436.2    0.00     -9.9      -9.9      -9.9      -9.9      -9.9      -9.9      -9.9
    28    10  1996    -9    0     450.5    435.5    0.00     -9.9      -9.9      -9.9      -9.9      -9.9      -9.9      -9.9
    29    10  1996    -9    0     449.7    434.7    0.00     -9.9      -9.9      -9.9      -9.9      -9.9      -9.9      -9.9
    30    10  1996    -9    0     449.1    434.1    0.00     -9.9      -9.9      -9.9      -9.9      -9.9      -9.9      -9.9
    31    10  1996    -9    0     448.3    433.3    0.00     -9.9      -9.9      -9.9      -9.9      -9.9      -9.9      -9.9
     1    11  1996    -9    0     447.7    432.7    0.00     -9.9      -9.9      -9.9      -9.9      -9.9      -9.9      -9.9
     2    11  1996    -9    0     447.1    432.1    0.00     -9.9      -9.9      -9.9      -9.9      -9.9      -9.9      -9.9
     3    11  1996    -9    0     446.6    431.6    0.00     -9.9      -9.9      -9.9      -9.9      -9.9      -9.9      -9.9
     4    11  1996    -9    0     446.3    431.3    0.00     -9.9      -9.9      -9.9      -9.9      -9.9      -9.9      -9.9
     5    11  1996    -9    0     445.9    430.9    0.00     -9.9      -9.9      -9.9      -9.9      -9.9      -9.9      -9.9
     6    11  1996    -9    0     445.5    430.5    0.00     -9.9      -9.9      -9.9      -9.9      -9.9      -9.9      -9.9
     7    11  1996    -9    0     445.4    430.4    0.00     -9.9      -9.9      -9.9      -9.9      -9.9      -9.9      -9.9
     8    11  1996    -9    0     445.1    430.1    0.00     -9.9      -9.9      -9.9      -9.9      -9.9      -9.9      -9.9
     9    11  1996    -9    0     444.8    429.8    0.00     -9.9      -9.9      -9.9      -9.9      -9.9      -9.9      -9.9
    10    11  1996    -9    0     444.5    429.5    0.00     -9.9      -9.9      -9.9      -9.9      -9.9      -9.9      -9.9
    11    11  1996    -9    0     443.9    428.9    0.00     -9.9      -9.9      -9.9      -9.9      -9.9      -9.9      -9.9
    12    11  1996    -9    0     443.3    428.3    0.00     -9.9      -9.9      -9.9      -9.9      -9.9      -9.9      -9.9
    13    11  1996    -9    0     442.8    427.8    0.00     -9.9      -9.9      -9.9      -9.9      -9.9      -9.9      -9.9
    14    11  1996    -9    0     442.3    427.3    0.00     -9.9      -9.9      -9.9      -9.9      -9.9      -9.9      -9.9
    15    11  1996    -9    0     441.9    426.9    0.00     -9.9      -9.9      -9.9      -9.9      -9.9      -9.9      -9.9
    16    11  1996    -9    0     456.7    441.7    0.00     -9.9      -9.9      -9.9      -9.9      -9.9      -9.9      -9.9
    17    11  1996    -9    0     489.4    474.4    0.00     -9.9      -9.9      -9.9      -9.9      -9.9      -9.9      -9.9
    18    11  1996    -9    0     509.3    494.2    0.00     -9.9      -9.9      -9.9      -9.9      -9.9      -9.9      -9.9
    19    11  1996    -9    0     520.8    505.6    0.00     -9.9      -9.9      -9.9      -9.9      -9.9      -9.9      -9.9
    20    11  1996    -9    0     531.0    515.6    0.00     -9.9      -9.9      -9.9      -9.9      -9.9      -9.9      -9.9
    21    11  1996    -9    0     512.3    496.7    0.00     -9.9      -9.9      -9.9      -9.9      -9.9      -9.9      -9.9
    22    11  1996    -9    0     497.5    482.0    0.00     -9.9      -9.9      -9.9      -9.9      -9.9      -9.9      -9.9
    23    11  1996    -9    0     494.8    479.4    0.00     -9.9      -9.9      -9.9      -9.9      -9.9      -9.9      -9.9
    24    11  1996    -9    0     493.9    478.6    0.00     -9.9      -9.9      -9.9      -9.9      -9.9      -9.9      -9.9
    25    11  1996    -9    0     496.1    480.9    0.00     -9.9      -9.9      -9.9      -9.9      -9.9      -9.9      -9.9
    26    11  1996    -9    0     498.7    483.5    0.00     -9.9      -9.9      -9.9      -9.9      -9.9      -9.9      -9.9
    27    11  1996    -9    0     490.5    475.3    0.00     -9.9      -9.9      -9.9      -9.9      -9.9      -9.9      -9.9
    28    11  1996    -9    0     483.9    468.7    0.00     -9.9      -9.9      -9.9      -9.9      -9.9      -9.9      -9.9
    29    11  1996    -9    0     479.7    464.5    0.00     -9.9      -9.9      -9.9      -9.9      -9.9      -9.9      -9.9
    30    11  1996    -9    0     476.3    461.2    0.00     -9.9      -9.9      -9.9      -9.9      -9.9      -9.9      -9.9
     1    12  1996    -9    0     471.5    456.4    0.00     -9.9      -9.9      -9.9      -9.9      -9.9      -9.9      -9.9
     2    12  1996    -9    0     467.8    452.7    0.00     -9.9      -9.9      -9.9      -9.9      -9.9      -9.9      -9.9
     3    12  1996    -9    0     465.0    449.9    0.00     -9.9      -9.9      -9.9      -9.9      -9.9      -9.9      -9.9
     4    12  1996    -9    0     462.9    447.8    0.00     -9.9      -9.9      -9.9      -9.9      -9.9      -9.9      -9.9
     5    12  1996     1    1     461.3    446.3    0.30     85.8     150.0      90.0      78.0      45.7      48.0      30.0
     6    12  1996     2    1     460.3    445.3    0.30     85.0     150.0      90.0      78.0      45.4      48.0      30.0
     7    12  1996     3    1     459.3    444.3    0.30     84.2     150.0      90.0      78.0      45.8      48.0      30.0
     8    12  1996     4    1     458.7    443.7    0.30     83.7     150.0      90.0      78.0      45.2      48.0      30.0
     9    12  1996     5    1     493.0    478.0    0.30    118.0     150.0      90.0      78.0      45.2      48.0      30.0
    10    12  1996     6    1     493.1    478.0    0.30    109.2     150.0      90.0      78.0      45.4      48.0      30.0
    11    12  1996     7    1     487.5    472.3    0.30     97.9     150.0      90.0      78.0      45.4      48.0      30.0
    12    12  1996     8    1     496.6    481.3    0.30    110.8     150.0      90.0      78.0      44.9      48.0      30.0
    13    12  1996     9    1     490.6    475.4    0.30    106.4     150.0      90.0      78.0      45.2      48.0      30.0
    14    12  1996    10    1     502.4    487.1    0.30    116.4     150.0      90.0      78.0      45.7      48.0      30.0
    15    12  1996    11    1     494.0    478.8    0.30    107.0     150.0      90.0      78.0      44.9      48.0      30.0
    16    12  1996    12    1     485.2    469.9    0.30     97.9     150.0      90.0      78.0      44.8      48.0      30.0
    17    12  1996    13    1     476.8    461.5    0.30     92.6     150.0      90.0      78.0      44.9      48.0      30.0
    18    12  1996    14    1     470.5    455.3    0.30     91.2     151.5      90.9      78.8      45.4      48.5      30.3
    19    12  1996    15    1     466.4    451.3    0.32     95.2     160.5      96.3      83.4      48.2      51.4      32.1
    20    12  1996    16    1     469.2    454.1    0.35    109.0     176.6     106.0      91.8      53.4      56.5      35.3
    21    12  1996    17    1     467.2    452.1    0.39    117.2     193.2     115.9     100.5      58.6      61.8      38.6
    22    12  1996    18    1     465.2    450.2    0.42    123.9     207.7     124.6     108.0      63.2      66.5      41.5
    23    12  1996    19    1     464.3    449.3    0.44    131.8     221.8     133.1     115.3      67.3      71.0      44.4
    24    12  1996    20    1     467.7    452.7    0.47    142.8     234.0     140.4     121.7      70.5      74.9      46.8
    25    12  1996    21    1     477.1    462.1    0.48    157.0     242.0     145.2     111.7      72.7      68.6      48.4
    26    12  1996    22    2     474.9    459.8    0.48    153.6     242.0     145.2     113.8      74.1      70.0      48.4
    27    12  1996    23    2     472.2    457.2    0.48    149.8     242.0     145.2     112.0      73.0      68.9      48.4
    28    12  1996    24    2     469.3    454.2    0.48    146.8     242.0     145.2     111.3      72.5      68.4      48.4
    29    12  1996    25    2     466.8    451.8    0.48    145.3     242.0     145.2     110.3      71.8      67.8      48.4
    30    12  1996    26    2     465.1    450.0    0.48    144.4     242.0     145.2     110.3      71.8      67.8      48.4
    31    12  1996    27    2     464.2    449.1    0.48    143.9     242.0     145.2     112.0      73.0      68.9      48.4
     1     1  1997    28    2     469.6    454.6    0.50    155.2     251.4     150.9     113.8      74.1      69.9      50.3
     2     1  1997    29    2     473.6    458.6    0.52    165.6     262.2     157.3     120.3      78.3      73.9      52.4
     3     1  1997    30    2     482.4    467.4    0.55    180.7     273.9     164.3     125.2      81.5      76.9      54.8
     4     1  1997    31    2     491.2    476.2    0.56    192.5     280.9     168.6     128.0      83.3      78.7      56.2
     5     1  1997    32    2     501.1    485.9    0.57    203.4     286.1     171.6     130.8      85.1      80.4      57.2
     6     1  1997    33    2     494.8    479.6    0.58    197.9     291.2     174.7     132.7      86.3      81.5      58.2
     7     1  1997    34    2     486.2    470.9    0.59    192.2     297.2     178.3     135.8      88.4      83.5      59.4
     8     1  1997    35    2     477.8    462.6    0.61    188.8     303.5     182.1     139.2      90.6      85.5      60.7
     9     1  1997    36    2     478.3    463.2    0.62    196.0     310.8     186.5     141.2      91.9      86.8      62.2
    10     1  1997    37    2     477.5    462.3    0.63    198.8     314.5     188.7     141.9      92.3      87.2      62.9
    11     1  1997    38    2     473.8    458.7    0.64    199.0     320.3     192.2     147.4      95.9      90.6      64.1
    12     1  1997    39    2     469.7    454.6    0.65    198.4     326.2     195.7     152.9      99.6      94.0      65.2
    13     1  1997    40    2     465.7    450.7    0.66    198.3     331.9     199.2     156.1     101.7      96.0      66.4
    14     1  1997    41    2     462.8    447.7    0.68    199.6     337.9     202.7     157.9     102.9      97.1      67.6
    15     1  1997    42    2     460.8    445.8    0.69    201.7     343.9     206.4     159.7     104.0      98.2      68.8
    16     1  1997    43    2     459.8    444.8    0.70    203.2     347.7     208.6     158.4     103.1      97.4      69.5
    17     1  1997    44    2     459.4    444.4    0.70    204.3     350.1     210.1     158.5     103.1      97.4      70.0
    18     1  1997    45    2     458.9    443.9    0.70    204.1     350.4     210.2     159.1     103.5      97.8      70.1
    19     1  1997    46    2     458.7    443.7    0.71    205.6     353.2     211.9     159.4     103.7      97.9      70.6
    20     1  1997    47    2     458.3    443.3    0.72    210.1     361.4     216.8     165.2     107.5     101.5      72.3
    21     1  1997    48    2     458.1    443.1    0.74    215.1     370.0     222.0     171.3     111.5     105.3      74.0
    22     1  1997    49    2     456.9    441.9    0.76    218.6     377.8     226.7     174.9     113.9     107.5      75.6
    23     1  1997    50    2     455.8    440.8    0.77    222.1     385.4     231.3     179.0     116.6     110.0      77.1
    24     1  1997    51    2     455.1    440.1    0.78    225.1     391.7     235.0     179.6     116.9     110.4      78.3
    25     1  1997    52    2     454.5    439.5    0.79    227.8     397.3     238.4     182.2     118.6     112.0      79.5
    26     1  1997    53    2     453.6    438.6    0.81    230.2     402.6     241.6     186.4     121.4     114.6      80.5
    27     1  1997    54    2     452.7    437.7    0.82    232.9     408.6     245.1     189.8     123.6     116.6      81.7
    28     1  1997    55    2     452.0    437.0    0.83    235.9     414.8     248.9     192.1     125.0     118.0      83.0
    29     1  1997    56    2     450.9    435.9    0.84    238.6     421.1     252.6     198.0     129.0     121.7      84.2
    30     1  1997    57    2     450.1    435.1    0.85    240.1     425.1     255.0     198.7     129.4     122.1      85.0
    31     1  1997    58    2     449.3    434.3    0.86    241.1     428.1     256.8     200.1     130.3     123.0      85.6
     1     2  1997    59    2     448.6    433.6    0.86    243.0     432.3     259.4     200.1     130.3     123.0      86.5
     2     2  1997    60    2     448.1    433.1    0.87    244.4     435.5     261.3     201.6     131.3     123.9      87.1
     3     2  1997    61    2     447.5    432.5    0.88    245.7     438.6     263.2     203.1     132.2     124.8      87.7
     4     2  1997    62    2     447.4    432.4    0.88    247.2     441.2     264.7     201.1     130.8     123.5      88.2
     5     2  1997    63    2     449.6    434.6    0.89    251.5     444.8     266.9     201.4     131.0     123.7      89.0
     6     2  1997    64    2     449.2    434.2    0.90    254.1     449.8     269.9     208.2     135.6     128.0      90.0
     7     2  1997    65    2     448.0    433.0    0.91    255.8     454.6     272.7     216.4     141.1     133.1      90.9
     8     2  1997    66    2     447.1    432.1    0.92    257.3     458.7     275.2     216.4     141.0     133.0      91.7
     9     2  1997    67    2     446.2    431.2    0.93    258.9     462.7     277.6     216.9     141.3     133.4      92.5
    10     2  1997    68    2     445.6    430.6    0.94    261.1     467.5     280.5     216.4     140.9     133.0      93.5
    11     2  1997    69    2     445.0    430.0    0.94    263.4     472.4     283.4     219.4     142.9     134.8      94.5
    12     2  1997    70    2     444.4    429.4    0.96    266.4     478.3     287.0     220.7     143.7     135.7      95.7
    13     2  1997    71    2     443.8    428.8    0.97    269.2     484.0     290.4     224.8     146.4     138.2      96.8
    14     2  1997    72    2     443.0    428.0    0.98    271.1     488.5     293.1     228.3     148.7     140.3      97.7
    15     2  1997    73    2     450.8    435.8    0.99    282.3     494.1     296.5     223.7     145.5     137.5      98.8
    16     2  1997    74    2     449.8    434.8    0.99    282.9     496.8     298.1     236.5     154.2     145.4      99.4
    17     2  1997    75    2     448.4    433.4    1.00    283.1     499.4     299.6     237.0     154.5     145.7      99.9
    18     2  1997    76    2     447.1    432.1    1.00    283.5     502.2     301.3     238.4     155.4     146.6     100.4
    19     2  1997    77    2     445.9    430.9    1.01    284.7     506.4     303.8     240.4     156.6     147.8     101.3
    20     2  1997    78    2     444.6    429.6    1.02    285.6     510.1     306.1     242.9     158.3     149.3     102.0
    21     2  1997    79    2     443.7    428.7    1.03    287.3     514.3     308.6     240.4     156.6     147.7     102.9
    22     2  1997    80    2     442.7    427.7    1.04    289.6     519.7     311.8     243.7     158.7     149.8     103.9
    23     2  1997    81    2     441.7    426.7    1.05    291.2     524.1     314.5     246.5     160.6     151.5     104.8
    24     2  1997    82    2     441.7    426.7    1.06    293.7     528.3     317.0     242.3     157.7     148.9     105.7
    25     2  1997    83    2     440.8    425.8    1.07    296.7     534.8     320.9     245.3     159.6     150.7     107.0
    26     2  1997    84    2     440.3    425.3    1.08    298.9     539.3     323.6     246.5     160.4     151.5     107.9
    27     2  1997    85    2     441.6    426.6    1.09    302.8     543.7     326.2     258.1     168.2     158.7     108.7
    28     2  1997    86    2     439.3    424.3    1.09    302.6     547.1     328.3     261.3     170.3     160.7     109.4
     1     3  1997    87    2     436.6    421.6    1.09    299.9     547.1     328.3     263.7     172.0     162.2     109.4
     2     3  1997    88    2     434.3    419.3    1.09    297.6     547.1     328.3     266.1     173.6     163.6     109.4
     3     3  1997    89    2     432.3    417.3    1.11    299.0     552.8     331.7     270.5     176.5     166.3     110.6
     4     3  1997    90    2     430.4    415.4    1.12    301.3     559.8     335.9     271.4     177.0     166.9     112.0
     5     3  1997    91    2     429.2    414.2    1.13    303.7     565.9     339.5     266.1     173.4     163.6     113.2
     6     3  1997    92    2     428.2    413.2    1.14    306.4     572.0     343.2     266.5     173.6     163.8     114.4
     7     3  1997    93    2     425.8    410.8    1.16    308.8     580.0     348.0     285.5     186.3     175.6     116.0
     8     3  1997    94    2     423.5    408.5    1.17    310.3     586.3     351.8     286.0     186.6     175.9     117.3
     9     3  1997    95    2     421.3    406.3    1.18    311.3     591.6     355.0     287.8     187.7     177.0     118.3
    10     3  1997    96    2     418.6    403.6    1.19    312.1     597.4     358.4     295.8     193.1     181.9     119.5
    11     3  1997    97    2     416.5    401.5    1.20    312.9     602.3     361.4     291.2     189.9     179.1     120.5
    12     3  1997    98    2     413.8    398.8    1.22    313.7     608.2     364.9     300.2     196.0     184.7     121.6
    13     3  1997    99    2     411.3    396.3    1.23    314.1     613.0     367.8     299.9     195.7     184.5     122.6
    14     3  1997   100    2     409.2    394.2    1.24    315.4     618.7     371.2     298.2     194.4     183.4     123.7
    15     3  1997   101    2     407.0    392.0    1.25    316.7     624.5     374.7     301.9     196.9     185.6     124.9
    16     3  1997   102    2     404.3    389.3    1.26    317.9     630.9     378.5     309.6     202.0     190.4     126.2
    17     3  1997   103    2     402.0    387.0    1.27    319.0     636.7     382.0     308.7     201.4     189.8     127.3
    18     3  1997   104    2     399.7    384.7    1.29    320.7     643.4     386.0     311.0     202.8     191.3     128.7
    19     3  1997   105    2     397.5    382.5    1.30    321.8     648.9     389.3     312.7     203.9     192.3     129.8
    20     3  1997   106    2     394.8    379.8    1.31    322.4     654.3     392.6     319.2     208.2     196.3     130.9
    21     3  1997   107    2     392.3    377.3    1.32    322.0     657.8     394.7     319.9     208.7     196.7     131.6
    22     3  1997   108    2     390.1    375.1    1.32    322.4     662.2     397.3     319.2     208.1     196.2     132.4
    23     3  1997   109    2     388.3    373.3    1.33    323.3     666.5     399.9     315.4     205.5     193.9     133.3
    24     3  1997   110    2     404.6    389.6    1.34    341.9     670.6     402.3     308.5     200.8     189.6     134.1
    25     3  1997   111    2     412.2    397.2    1.35    352.4     675.4     405.2     324.5     211.6     199.5     135.1
    26     3  1997   112    2     408.6    393.6    1.36    352.1     680.9     408.5     337.1     220.0     207.4     136.2
    27     3  1997   113    2     405.3    390.3    1.37    352.0     686.2     411.7     336.8     219.7     207.1     137.2
    28     3  1997   114    2     403.0    388.0    1.38    352.1     690.2     414.1     329.7     214.9     202.7     138.0
    29     3  1997   115    2     405.0    390.0    1.39    356.0     693.4     416.0     343.3     224.1     211.2     138.7
    30     3  1997   116    2     401.5    386.5    1.39    354.0     695.7     417.4     342.4     223.5     210.6     139.1
    31     3  1997   117    2     397.5    382.5    1.40    351.5     698.3     419.0     349.8     228.4     215.2     139.7
     1     4  1997   118    2     394.2    379.2    1.40    350.6     702.3     421.4     344.7     224.9     212.0     140.5
     2     4  1997   119    2     391.6    376.6    1.41    350.3     706.1     423.6     339.3     221.2     208.6     141.2
     3     4  1997   120    2     387.8    372.8    1.42    349.9     711.9     427.1     354.6     231.5     218.1     142.4
     4     4  1997   121    2     384.7    369.7    1.43    350.1     717.3     430.4     349.9     228.3     215.2     143.5
     5     4  1997   122    2     381.0    366.0    1.44    349.2     722.0     433.2     358.6     234.1     220.5     144.4
     6     4  1997   123    2     379.0    364.0    1.45    350.2     727.0     436.2     344.0     224.2     211.5     145.4
     7     4  1997   124    2     374.8    359.8    1.46    348.6     731.3     438.8     367.4     240.0     226.0     146.3
     8     4  1997   125    2     370.9    355.9    1.47    346.2     733.9     440.3     366.6     239.4     225.5     146.8
     9     4  1997   126    2     367.6    352.6    1.47    344.9     737.3     442.4     361.8     236.1     222.5     147.5
    10     4  1997   127    2     364.0    349.0    1.48    343.9     741.4     444.8     366.0     238.9     225.1     148.3
    11     4  1997   128    2     360.7    345.7    1.49    342.8     745.1     447.1     365.7     238.6     224.9     149.0
    12     4  1997   129    2     357.9    342.9    1.50    342.6     749.5     449.7     365.6     238.5     224.9     149.9
    13     4  1997   130    2     354.1    339.1    1.50    339.1     750.0     450.0     375.7     245.4     231.1     150.0
    14     4  1997   131    2     351.4    336.4    1.50    336.4     750.0     450.0     363.7     237.2     223.6     150.0
    15     4  1997   132    2     349.4    334.4    1.50    334.4     750.0     450.0     356.0     232.0     218.9     150.0
    16     4  1997   133    2     345.6    330.6    1.50    330.6     750.0     450.0     375.7     245.4     231.1     150.0
    17     4  1997   134    2     341.8    326.8    1.50    326.8     750.0     450.0     375.7     245.4     231.1     150.0
    18     4  1997   135    2     337.9    322.9    1.50    322.9     750.0     450.0     376.8     246.1     231.8     150.0
    19     4  1997   136    2     334.5    319.5    1.50    319.5     750.0     450.0     370.3     241.7     227.7     150.0
    20     4  1997   137    2     334.9    319.9    1.50    319.9     750.0     450.0     339.6     220.9     208.6     150.0
    21     4  1997   138    2     389.1    374.1    1.50    374.1     750.0     450.0     337.4     219.4     207.3     150.0
    22     4  1997   139    2     403.9    388.9    1.50    388.9     750.0     450.0     342.8     223.1     210.7     150.0
    23     4  1997   140    2     401.1    386.1    1.50    386.1     750.0     450.0     363.7     237.2     223.6     150.0
    24     4  1997   141    2     397.0    382.0    1.50    382.0     750.0     450.0     375.7     245.4     231.1     150.0
    25     4  1997   142    2     392.7    377.7    1.50    377.7     750.0     450.0     377.9     246.8     232.5     150.0
    26     4  1997   143    2     389.7    374.7    1.50    374.7     750.0     450.0     364.8     237.9     224.3     150.0
    27     4  1997   144    2     402.5    387.5    1.50    387.5     750.0     450.0     354.9     231.3     218.2     150.0
    28     4  1997   145    2     411.7    396.7    1.50    396.7     750.0     450.0     365.9     238.7     225.0     150.0
    29     4  1997   146    2     414.6    399.6    1.50    399.6     750.0     450.0     351.6     229.0     216.1     150.0
    30     4  1997   147    2     412.2    397.2    1.50    397.2     750.0     450.0     359.3     234.2     220.9     150.0
     1     5  1997   148    2     407.6    392.6    1.50    392.6     750.0     450.0     381.2     249.1     234.5     150.0
     2     5  1997   149    2     402.5    387.5    1.50    387.5     750.0     450.0     385.6     252.0     237.3     150.0
     3     5  1997   150    2     397.8    382.8    1.50    382.8     750.0     450.0     382.3     249.8     235.2     150.0
     4     5  1997   151    2     393.0    378.0    1.50    378.0     750.0     450.0     382.3     249.8     235.2     150.0
     5     5  1997   152    2     389.3    374.3    1.50    374.3     750.0     450.0     374.6     244.6     230.5     150.0
     6     5  1997   153    2     384.5    369.5    1.50    369.5     750.0     450.0     386.7     252.8     238.0     150.0
     7     5  1997   154    2     384.9    369.9    1.50    369.9     750.0     450.0     371.4     242.4     228.4     150.0
     8     5  1997   155    2     407.2    392.2    1.50    392.2     750.0     450.0     346.1     225.3     212.7     150.0
     9     5  1997   156    2     403.7    388.7    1.50    388.7     750.0     450.0     370.3     241.7     227.7     150.0
    10     5  1997   157    2     399.4    384.4    1.50    384.4     750.0     450.0     377.9     246.8     232.5     150.0
    11     5  1997   158    2     395.0    380.0    1.50    380.0     750.0     450.0     381.2     249.1     234.5     150.0
    12     5  1997   159    2     390.1    375.1    1.50    375.1     750.0     450.0     383.4     250.6     235.9     150.0
    13     5  1997   160    2     384.9    369.9    1.50    369.9     750.0     450.0     387.8     253.5     238.6     150.0
    14     5  1997   161    2     379.8    364.8    1.50    364.8     750.0     450.0     387.8     253.5     238.6     150.0
    15     5  1997   162    2     374.3    359.3    1.50    359.3     750.0     450.0     391.1     255.7     240.7     150.0
    16     5  1997   163    2     371.0    356.0    1.50    356.0     750.0     450.0     375.7     245.4     231.1     150.0
    17     5  1997   164    2     365.9    350.9    1.50    350.9     750.0     450.0     385.6     252.0     237.3     150.0
    18     5  1997   165    2     361.4    346.4    1.50    346.4     750.0     450.0     380.1     248.3     233.9     150.0
    19     5  1997   166    2     357.1    342.1    1.50    342.1     750.0     450.0     380.1     248.3     233.9     150.0
    20     5  1997   167    3     352.8    337.8    1.50    337.8     750.0     450.0     377.9     246.8     232.5     150.0
    21     5  1997   168    3     366.0    351.0    1.50    351.0     750.0     450.0     357.1     232.8     219.5     150.0
    22     5  1997   169    3     366.7    351.7    1.50    351.7     750.0     450.0     374.6     244.6     230.5     150.0
    23     5  1997   170    3     362.2    347.2    1.50    347.2     750.0     450.0     382.3     249.8     235.2     150.0
    24     5  1997   171    3     358.1    343.1    1.50    343.1     750.0     450.0     377.9     246.8     232.5     150.0
    25     5  1997   172    3     353.1    338.1    1.50    338.1     750.0     450.0     385.6     252.0     237.3     150.0
    26     5  1997   173    3     348.5    333.5    1.50    333.5     750.0     450.0     382.3     249.8     235.2     150.0
    27     5  1997   174    3     343.4    328.4    1.50    328.4     750.0     450.0     387.8     253.5     238.6     150.0
    28     5  1997   175    3     337.7    322.7    1.50    322.7     750.0     450.0     394.4     258.0     242.7     150.0
    29     5  1997   176    3     331.1    316.1    1.50    316.1     750.0     450.0     404.3     264.6     248.9     150.0
    30     5  1997   177    3     326.2    311.2    1.50    311.2     750.0     450.0     388.9     254.3     239.3     150.0
    31     5  1997   178    3     321.1    306.1    1.50    306.1     750.0     450.0     386.7     252.8     238.0     150.0
     1     6  1997   179    3     369.1    354.1    1.50    354.1     750.0     450.0     365.9     238.7     225.0     150.0
     2     6  1997   180    3     372.9    357.9    1.50    357.9     750.0     450.0     363.7     237.2     223.6     150.0
     3     6  1997   181    4     369.5    354.5    1.50    354.5     750.0     450.0     371.4     242.4     228.4     150.0
     4     6  1997   182    4     365.3    350.3    1.50    350.3     750.0     450.0     377.9     246.8     232.5     150.0
     5     6  1997   183    4     374.9    359.9    1.50    359.9     750.0     450.0     347.2     226.1     213.4     150.0
     6     6  1997   184    4     378.7    363.7    1.50    363.7     750.0     450.0     363.7     237.2     223.6     150.0
     7     6  1997   185    4     374.3    359.3    1.50    359.3     750.0     450.0     382.3     249.8     235.2     150.0
     8     6  1997   186    4     369.4    354.4    1.50    354.4     750.0     450.0     385.6     252.0     237.3     150.0
     9     6  1997   187    4     364.2    349.2    1.50    349.2     750.0     450.0     388.9     254.3     239.3     150.0
    10     6  1997   188    4     359.0    344.0    1.50    344.0     750.0     450.0     388.9     254.3     239.3     150.0
    11     6  1997   189    4     354.4    339.4    1.50    339.4     750.0     450.0     383.4     250.6     235.9     150.0
    12     6  1997   190    4     348.8    333.8    1.50    333.8     750.0     450.0     393.3     257.2     242.0     150.0
    13     6  1997   191    4     344.8    329.8    1.50    329.8     750.0     450.0     377.9     246.8     232.5     150.0
    14     6  1997   192    4     340.0    325.0    1.50    325.0     750.0     450.0     385.6     252.0     237.3     150.0
    15     6  1997   193    4     333.6    318.6    1.50    318.6     750.0     450.0     402.1     263.2     247.5     150.0
    16     6  1997   194    4     328.0    313.0    1.50    313.0     750.0     450.0     395.5     258.7     243.4     150.0
    17     6  1997   195    4     322.5    307.5    1.50    307.5     750.0     450.0     393.3     257.2     242.0     150.0
    18     6  1997   196    4     318.4    303.4    1.50    303.4     750.0     450.0     380.1     248.3     233.9     150.0
    19     6  1997   197    4     320.5    305.5    1.50    305.5     750.0     450.0     382.3     249.8     235.2     150.0
    20     6  1997   198    4     315.8    300.8    1.50    300.8     750.0     450.0     385.6     252.0     237.3     150.0
    21     6  1997   199    4     311.9    296.9    1.50    296.9     750.0     450.0     379.0     247.6     233.2     150.0
    22     6  1997   200    4     306.6    291.6    1.50    291.6     750.0     450.0     395.5     258.7     243.4     150.0
    23     6  1997   201    4     302.1    287.1    1.50    287.1     750.0     450.0     386.7     252.8     238.0     150.0
    24     6  1997   202    4     297.5    282.5    1.50    282.5     750.0     450.0     388.9     254.3     239.3     150.0
    25     6  1997   203    4     293.0    278.0    1.50    278.0     750.0     450.0     388.9     254.3     239.3     150.0
    26     6  1997   204    4     289.2    274.2    1.50    274.2     750.0     450.0     380.1     248.3     233.9     150.0
    27     6  1997   205    4     284.1    269.1    1.50    269.1     750.0     450.0     397.7     260.2     244.8     150.0
    28     6  1997   206    4     279.5    264.5    1.50    264.5     750.0     450.0     393.3     257.2     242.0     150.0
    29     6  1997   207    4     275.2    260.2    1.50    260.2     750.0     450.0     390.0     255.0     240.0     150.0
    30     6  1997   208    4     271.7    256.7    1.50    256.7     750.0     450.0     382.3     249.8     235.2     150.0
     1     7  1997   209    4     267.9    252.9    1.50    252.9     750.0     450.0     385.6     252.0     237.3     150.0
     2     7  1997   210    4     264.5    249.5    1.50    249.5     750.0     450.0     382.3     249.8     235.2     150.0
     3     7  1997   211    4     260.4    245.4    1.50    245.4     750.0     450.0     402.1     263.2     247.5     150.0
     4     7  1997   212    4     257.4    242.4    1.50    242.4     750.0     450.0     382.3     249.8     235.2     150.0
     5     7  1997   213    4     256.2    241.2    1.50    241.2     750.0     450.0     382.3     249.8     235.2     150.0
     6     7  1997   214    4     252.9    237.9    1.50    237.9     750.0     450.0     383.4     250.6     235.9     150.0
     7     7  1997   215    4     249.4    234.4    1.50    234.4     750.0     450.0     392.2     256.5     241.4     150.0
     8     7  1997   216    4     246.4    231.4    1.50    231.4     750.0     450.0     398.8     260.9     245.5     150.0
     9     7  1997   217    4     244.0    229.0    1.50    229.0     750.0     450.0     394.4     258.0     242.7     150.0
    10     7  1997   218    4     241.9    226.9    1.50    226.9     750.0     450.0     394.4     258.0     242.7     150.0
    11     7  1997   219    4     239.9    224.9    1.50    224.9     750.0     450.0     394.4     258.0     242.7     150.0
    12     7  1997   220    4     238.3    223.3    1.50    223.3     750.0     450.0     391.1     255.7     240.7     150.0
    13     7  1997   221    4     236.8    221.8    1.50    221.8     750.0     450.0     393.3     257.2     242.0     150.0
    14     7  1997   222    4     235.4    220.4    1.50    220.4     750.0     450.0     394.4     258.0     242.7     150.0
    15     7  1997   223    4     234.3    219.3    1.50    219.3     750.0     450.0     393.3     257.2     242.0     150.0
    16     7  1997   224    4     233.3    218.3    1.50    218.3     750.0     450.0     404.3     264.6     248.9     150.0
    17     7  1997   225    4     232.6    217.6    1.50    217.6     750.0     450.0     391.1     255.7     240.7     150.0
    18     7  1997   226    4     241.3    226.3    1.50    226.3     750.0     450.0     382.3     249.8     235.2     150.0
    19     7  1997   227    4     239.1    224.1    1.50    224.1     750.0     450.0     391.1     255.7     240.7     150.0
    20     7  1997   228    4     236.8    221.8    1.50    221.8     750.0     450.0     391.1     255.7     240.7     150.0
    21     7  1997   229    4     235.0    220.0    1.50    220.0     750.0     450.0     385.6     252.0     237.3     150.0
    22     7  1997   230    4     234.9    219.9    1.50    219.9     750.0     450.0     385.6     258.0     237.3     150.0
    23     7  1997    -9    0     234.7    219.7    0.00     -9.9      -9.9      -9.9      -9.9      -9.9      -9.9      -9.9
    24     7  1997    -9    0     234.6    219.6    0.00     -9.9      -9.9      -9.9      -9.9      -9.9      -9.9      -9.9
    25     7  1997    -9    0     234.5    219.5    0.00     -9.9      -9.9      -9.9      -9.9      -9.9      -9.9      -9.9
    26     7  1997    -9    0     234.3    219.3    0.00     -9.9      -9.9      -9.9      -9.9      -9.9      -9.9      -9.9
    27     7  1997    -9    0     234.2    219.2    0.00     -9.9      -9.9      -9.9      -9.9      -9.9      -9.9      -9.9
    28     7  1997    -9    0     234.0    219.0    0.00     -9.9      -9.9      -9.9      -9.9      -9.9      -9.9      -9.9
    29     7  1997    -9    0     233.9    218.9    0.00     -9.9      -9.9      -9.9      -9.9      -9.9      -9.9      -9.9
    30     7  1997    -9    0     233.7    218.7    0.00     -9.9      -9.9      -9.9      -9.9      -9.9      -9.9      -9.9
    31     7  1997    -9    0     233.5    218.5    0.00     -9.9      -9.9      -9.9      -9.9      -9.9      -9.9      -9.9
     1     8  1997    -9    0     233.4    218.4    0.00     -9.9      -9.9      -9.9      -9.9      -9.9      -9.9      -9.9
     2     8  1997    -9    0     233.2    218.2    0.00     -9.9      -9.9      -9.9      -9.9      -9.9      -9.9      -9.9
     3     8  1997    -9    0     233.0    218.0    0.00     -9.9      -9.9      -9.9      -9.9      -9.9      -9.9      -9.9
     4     8  1997    -9    0     232.9    217.9    0.00     -9.9      -9.9      -9.9      -9.9      -9.9      -9.9      -9.9
     5     8  1997    -9    0     232.8    217.8    0.00     -9.9      -9.9      -9.9      -9.9      -9.9      -9.9      -9.9
     6     8  1997    -9    0     232.7    217.7    0.00     -9.9      -9.9      -9.9      -9.9      -9.9      -9.9      -9.9
     7     8  1997    -9    0     232.6    217.6    0.00     -9.9      -9.9      -9.9      -9.9      -9.9      -9.9      -9.9
     8     8  1997    -9    0     232.5    217.5    0.00     -9.9      -9.9      -9.9      -9.9      -9.9      -9.9      -9.9
     9     8  1997    -9    0     232.4    217.4    0.00     -9.9      -9.9      -9.9      -9.9      -9.9      -9.9      -9.9
    10     8  1997    -9    0     232.2    217.2    0.00     -9.9      -9.9      -9.9      -9.9      -9.9      -9.9      -9.9
    11     8  1997    -9    0     232.1    217.1    0.00     -9.9      -9.9      -9.9      -9.9      -9.9      -9.9      -9.9
    12     8  1997    -9    0     231.9    216.9    0.00     -9.9      -9.9      -9.9      -9.9      -9.9      -9.9      -9.9
    13     8  1997    -9    0     231.8    216.8    0.00     -9.9      -9.9      -9.9      -9.9      -9.9      -9.9      -9.9
    14     8  1997    -9    0     231.6    216.6    0.00     -9.9      -9.9      -9.9      -9.9      -9.9      -9.9      -9.9
    15     8  1997    -9    0     231.5    216.5    0.00     -9.9      -9.9      -9.9      -9.9      -9.9      -9.9      -9.9
    16     8  1997    -9    0     231.4    216.4    0.00     -9.9      -9.9      -9.9      -9.9      -9.9      -9.9      -9.9
    17     8  1997    -9    0     231.3    216.3    0.00     -9.9      -9.9      -9.9      -9.9      -9.9      -9.9      -9.9
    18     8  1997    -9    0     231.3    216.3    0.00     -9.9      -9.9      -9.9      -9.9      -9.9      -9.9      -9.9
    19     8  1997    -9    0     234.5    219.5    0.00     -9.9      -9.9      -9.9      -9.9      -9.9      -9.9      -9.9
    20     8  1997    -9    0     234.4    219.4    0.00     -9.9      -9.9      -9.9      -9.9      -9.9      -9.9      -9.9
    21     8  1997    -9    0     234.3    219.3    0.00     -9.9      -9.9      -9.9      -9.9      -9.9      -9.9      -9.9
    22     8  1997    -9    0     234.2    219.2    0.00     -9.9      -9.9      -9.9      -9.9      -9.9      -9.9      -9.9

Legend

DAP          : Days after planting
Stage        : 0: before/after planting
Stage        : 1: emergence or transplant recovery
Stage        : 2: vegetative stage
Stage        : 3: flowering
Stage        : 4: yield formation and ripening
WCTot        : Water content in total soil profile (layer: 0.00 - 1.55 m)
Wr(Zx)       : Water content in maximum effective root zone (Zx = 1.50 m)
Z            : Effective rooting depth
Wr           : Water content in effective root zone
Wr(Sat)      : Water content in effective root zone if saturated
Wr(FC)       : Water content in effective root zone at field capacity
Wr(exp)      : Water content in effective root zone at upper threshold for leaf expansion
Wr(sto)      : Water content in effective root zone at upper threshold for stomatal closure
Wr(sen)      : Water content in effective root zone at upper threshold for early canopy senescence
Wr(PWP)      : Water content in effective root zone at permanent wilting point
