AquaCrop 4.0 (June 2012) - Output created on (date) : 21/03/2014   at (time) : 15:57:23
Soil Water balance

   Day Month  Year   DAP Stage     WCTot    Rain     Irri   Surf   Infilt   RO    Drain       CR    Zgwt       Ex       E     E/Ex    Trx       Tr  Tr/Trx    ETx      ET   ET/ETx
                                      mm      mm       mm     mm     mm     mm       mm       mm      m        mm       mm     %       mm       mm    %        mm      mm      %
    22     9  1996    -9    0      474.8    13.4      0.0    0.0   13.3    0.1      0.0      0.0   -9.90      3.5      3.5   100      0.0      0.0   100      3.5     3.5    100
    23     9  1996    -9    0      492.7    23.2      0.0    0.0   21.1    2.1      0.3      0.0   -9.90      2.9      2.9   100      0.0      0.0   100      2.9     2.9    100
    24     9  1996    -9    0      487.5     0.0      0.0    0.0    0.0    0.0      2.2      0.0   -9.90      3.0      3.0   100      0.0      0.0   100      3.0     3.0    100
    25     9  1996    -9    0      485.7     5.8      0.0    0.0    5.8    0.0      4.9      0.0   -9.90      2.8      2.8   100      0.0      0.0   100      2.8     2.8    100
    26     9  1996    -9    0      483.0     6.6      0.0    0.0    6.6    0.0      6.1      0.0   -9.90      3.2      3.2   100      0.0      0.0   100      3.2     3.2    100
    27     9  1996    -9    0      473.4     0.0      0.0    0.0    0.0    0.0      5.5      0.0   -9.90      4.1      4.0    99      0.0      0.0   100      4.1     4.0     99
    28     9  1996    -9    0      466.4     0.0      0.0    0.0    0.0    0.0      4.1      0.0   -9.90      4.1      3.0    73      0.0      0.0   100      4.1     3.0     73
    29     9  1996    -9    0      461.5     0.0      0.0    0.0    0.0    0.0      2.7      0.0   -9.90      4.0      2.1    54      0.0      0.0   100      4.0     2.1     54
    30     9  1996    -9    0      458.6     0.0      0.0    0.0    0.0    0.0      1.6      0.0   -9.90      3.0      1.3    44      0.0      0.0   100      3.0     1.3     44
     1    10  1996    -9    0      455.6     0.2      0.0    0.0    0.2    0.0      0.8      0.0   -9.90      3.1      2.4    78      0.0      0.0   100      3.1     2.4     78
     2    10  1996    -9    0      458.7     6.2      0.0    0.0    6.2    0.0      0.4      0.0   -9.90      2.6      2.6   100      0.0      0.0   100      2.6     2.6    100
     3    10  1996    -9    0      455.4     0.2      0.0    0.0    0.2    0.0      0.2      0.0   -9.90      4.1      3.4    83      0.0      0.0   100      4.1     3.4     83
     4    10  1996    -9    0      453.2     0.0      0.0    0.0    0.0    0.0      0.1      0.0   -9.90      3.7      2.1    57      0.0      0.0   100      3.7     2.1     57
     5    10  1996    -9    0      451.7     0.0      0.0    0.0    0.0    0.0      0.0      0.0   -9.90      3.2      1.4    45      0.0      0.0   100      3.2     1.4     45
     6    10  1996    -9    0      450.7     0.0      0.0    0.0    0.0    0.0      0.0      0.0   -9.90      2.5      1.0    38      0.0      0.0   100      2.5     1.0     38
     7    10  1996    -9    0      493.7    46.4      0.0    0.0   45.0    1.4      0.0      0.0   -9.90      2.0      2.0   100      0.0      0.0   100      2.0     2.0    100
     8    10  1996    -9    0      503.1    14.6      0.0    0.0   14.4    0.2      1.8      0.0   -9.90      3.2      3.2   100      0.0      0.0   100      3.2     3.2    100
     9    10  1996    -9    0      492.8     0.0      0.0    0.0    0.0    0.0      6.0      0.0   -9.90      4.3      4.3   100      0.0      0.0   100      4.3     4.3    100
    10    10  1996    -9    0      481.7     0.0      0.0    0.0    0.0    0.0      8.6      0.0   -9.90      4.2      2.6    61      0.0      0.0   100      4.2     2.6     61
    11    10  1996    -9    0      472.4     0.0      0.0    0.0    0.0    0.0      7.7      0.0   -9.90      3.4      1.6    47      0.0      0.0   100      3.4     1.6     47
    12    10  1996    -9    0      466.1     0.0      0.0    0.0    0.0    0.0      5.1      0.0   -9.90      3.2      1.3    39      0.0      0.0   100      3.2     1.3     39
    13    10  1996    -9    0      461.1     0.4      0.0    0.0    0.4    0.0      2.8      0.0   -9.90      3.0      2.6    89      0.0      0.0   100      3.0     2.6     89
    14    10  1996    -9    0      468.4    11.8      0.0    0.0   11.8    0.0      1.4      0.0   -9.90      3.1      3.1   100      0.0      0.0   100      3.1     3.1    100
    15    10  1996    -9    0      475.2    11.6      0.0    0.0   11.6    0.0      0.7      0.0   -9.90      4.1      4.1   100      0.0      0.0   100      4.1     4.1    100
    16    10  1996    -9    0      502.1    39.4      0.0    0.0   29.9    9.5      0.8      0.0   -9.90      2.2      2.2   100      0.0      0.0   100      2.2     2.2    100
    17    10  1996    -9    0      505.2     9.4      0.0    0.0    9.4    0.0      3.9      0.0   -9.90      2.4      2.4   100      0.0      0.0   100      2.4     2.4    100
    18    10  1996    -9    0      494.5     0.2      0.0    0.0    0.2    0.0      8.6      0.0   -9.90      2.4      2.3    93      0.0      0.0   100      2.4     2.3     93
    19    10  1996    -9    0      482.8     0.2      0.0    0.0    0.2    0.0     10.2      0.0   -9.90      1.9      1.7    93      0.0      0.0   100      1.9     1.7     93
    20    10  1996    -9    0      472.7     0.0      0.0    0.0    0.0    0.0      8.1      0.0   -9.90      2.8      2.0    72      0.0      0.0   100      2.8     2.0     72
    21    10  1996    -9    0      466.2     0.2      0.0    0.0    0.2    0.0      5.0      0.0   -9.90      1.9      1.7    92      0.0      0.0   100      1.9     1.7     92
    22    10  1996    -9    0      461.8     0.0      0.0    0.0    0.0    0.0      2.6      0.0   -9.90      2.4      1.8    74      0.0      0.0   100      2.4     1.8     74
    23    10  1996    -9    0      458.3     0.2      0.0    0.0    0.2    0.0      1.3      0.0   -9.90      2.8      2.4    89      0.0      0.0   100      2.8     2.4     89
    24    10  1996    -9    0      455.3     0.2      0.0    0.0    0.2    0.0      0.6      0.0   -9.90      3.3      2.6    79      0.0      0.0   100      3.3     2.6     79
    25    10  1996    -9    0      453.6     0.0      0.0    0.0    0.0    0.0      0.3      0.0   -9.90      2.5      1.5    60      0.0      0.0   100      2.5     1.5     60
    26    10  1996    -9    0      452.2     0.0      0.0    0.0    0.0    0.0      0.1      0.0   -9.90      2.5      1.2    49      0.0      0.0   100      2.5     1.2     49
    27    10  1996    -9    0      451.2     0.0      0.0    0.0    0.0    0.0      0.1      0.0   -9.90      2.2      0.9    42      0.0      0.0   100      2.2     0.9     42
    28    10  1996    -9    0      450.5     0.0      0.0    0.0    0.0    0.0      0.0      0.0   -9.90      1.8      0.7    38      0.0      0.0   100      1.8     0.7     38
    29    10  1996    -9    0      449.7     0.2      0.0    0.0    0.2    0.0      0.0      0.0   -9.90      2.6      1.0    39      0.0      0.0   100      2.6     1.0     39
    30    10  1996    -9    0      449.1     0.8      0.0    0.0    0.8    0.0      0.0      0.0   -9.90      2.5      1.3    53      0.0      0.0   100      2.5     1.3     53
    31    10  1996    -9    0      448.3     0.0      0.0    0.0    0.0    0.0      0.0      0.0   -9.90      2.9      0.8    28      0.0      0.0   100      2.9     0.8     28
     1    11  1996    -9    0      447.7     0.0      0.0    0.0    0.0    0.0      0.0      0.0   -9.90      2.2      0.6    26      0.0      0.0   100      2.2     0.6     26
     2    11  1996    -9    0      447.1     0.0      0.0    0.0    0.0    0.0      0.0      0.0   -9.90      2.9      0.7    24      0.0      0.0   100      2.9     0.7     24
     3    11  1996    -9    0      446.6     0.0      0.0    0.0    0.0    0.0      0.0      0.0   -9.90      2.2      0.5    22      0.0      0.0   100      2.2     0.5     22
     4    11  1996    -9    0      446.3     0.2      0.0    0.0    0.2    0.0      0.0      0.0   -9.90      1.7      0.5    30      0.0      0.0   100      1.7     0.5     30
     5    11  1996    -9    0      445.9     0.0      0.0    0.0    0.0    0.0      0.0      0.0   -9.90      2.1      0.4    20      0.0      0.0   100      2.1     0.4     20
     6    11  1996    -9    0      445.5     0.0      0.0    0.0    0.0    0.0      0.0      0.0   -9.90      1.9      0.3    18      0.0      0.0   100      1.9     0.3     18
     7    11  1996    -9    0      445.4     0.8      0.0    0.0    0.8    0.0      0.0      0.0   -9.90      1.7      1.0    58      0.0      0.0   100      1.7     1.0     58
     8    11  1996    -9    0      445.1     0.2      0.0    0.0    0.2    0.0      0.0      0.0   -9.90      2.1      0.5    25      0.0      0.0   100      2.1     0.5     25
     9    11  1996    -9    0      444.8     0.2      0.0    0.0    0.2    0.0      0.0      0.0   -9.90      1.9      0.5    25      0.0      0.0   100      1.9     0.5     25
    10    11  1996    -9    0      444.5     0.4      0.0    0.0    0.4    0.0      0.0      0.0   -9.90      2.2      0.7    31      0.0      0.0   100      2.2     0.7     31
    11    11  1996    -9    0      443.9     0.0      0.0    0.0    0.0    0.0      0.0      0.0   -9.90      3.9      0.6    15      0.0      0.0   100      3.9     0.6     15
    12    11  1996    -9    0      443.3     0.0      0.0    0.0    0.0    0.0      0.0      0.0   -9.90      4.7      0.6    14      0.0      0.0   100      4.7     0.6     14
    13    11  1996    -9    0      442.8     0.0      0.0    0.0    0.0    0.0      0.0      0.0   -9.90      4.1      0.5    12      0.0      0.0   100      4.1     0.5     12
    14    11  1996    -9    0      442.3     0.0      0.0    0.0    0.0    0.0      0.0      0.0   -9.90      3.9      0.4    12      0.0      0.0   100      3.9     0.4     12
    15    11  1996    -9    0      441.9     0.0      0.0    0.0    0.0    0.0      0.0      0.0   -9.90      3.7      0.4    11      0.0      0.0   100      3.7     0.4     11
    16    11  1996    -9    0      456.7    17.6      0.0    0.0   17.6    0.0      0.0      0.0   -9.90      2.9      2.9   100      0.0      0.0   100      2.9     2.9    100
    17    11  1996    -9    0      489.4    37.4      0.0    0.0   35.4    2.0      0.0      0.0   -9.90      2.8      2.8   100      0.0      0.0   100      2.8     2.8    100
    18    11  1996    -9    0      509.3    27.8      0.0    0.0   24.0    3.8      1.2      0.0   -9.90      2.9      2.9   100      0.0      0.0   100      2.9     2.9    100
    19    11  1996    -9    0      520.8    20.8      0.0    0.0   19.4    1.4      6.1      0.0   -9.90      1.8      1.8   100      0.0      0.0   100      1.8     1.8    100
    20    11  1996    -9    0      531.0    29.8      0.0    0.0   25.1    4.7     12.5      0.0   -9.90      2.4      2.4   100      0.0      0.0   100      2.4     2.4    100
    21    11  1996    -9    0      512.3     0.6      0.0    0.0    0.6    0.0     17.2      0.0   -9.90      2.2      2.1    96      0.0      0.0   100      2.2     2.1     96
    22    11  1996    -9    0      497.5     4.6      0.0    0.0    4.6    0.0     16.7      0.0   -9.90      2.6      2.6   100      0.0      0.0   100      2.6     2.6    100
    23    11  1996    -9    0      494.8    11.8      0.0    0.0   11.8    0.0     13.3      0.0   -9.90      1.1      1.1   100      0.0      0.0   100      1.1     1.1    100
    24    11  1996    -9    0      493.9     9.4      0.0    0.0    9.4    0.0      9.2      0.0   -9.90      1.2      1.2   100      0.0      0.0   100      1.2     1.2    100
    25    11  1996    -9    0      496.1    10.2      0.0    0.0   10.2    0.0      6.7      0.0   -9.90      1.3      1.3   100      0.0      0.0   100      1.3     1.3    100
    26    11  1996    -9    0      498.7    10.2      0.0    0.0   10.2    0.0      6.2      0.0   -9.90      1.3      1.3   100      0.0      0.0   100      1.3     1.3    100
    27    11  1996    -9    0      490.5     0.0      0.0    0.0    0.0    0.0      6.9      0.0   -9.90      1.3      1.3   100      0.0      0.0   100      1.3     1.3    100
    28    11  1996    -9    0      483.9     2.4      0.0    0.0    2.4    0.0      7.6      0.0   -9.90      1.4      1.4   100      0.0      0.0   100      1.4     1.4    100
    29    11  1996    -9    0      479.7     4.2      0.0    0.0    4.2    0.0      6.7      0.0   -9.90      1.7      1.7   100      0.0      0.0   100      1.7     1.7    100
    30    11  1996    -9    0      476.3     2.8      0.0    0.0    2.8    0.0      5.2      0.0   -9.90      1.0      1.0   100      0.0      0.0   100      1.0     1.0    100
     1    12  1996    -9    0      471.5     1.0      0.0    0.0    1.0    0.0      3.8      0.0   -9.90      2.1      2.0    98      0.0      0.0   100      2.1     2.0     98
     2    12  1996    -9    0      467.8     0.0      0.0    0.0    0.0    0.0      2.5      0.0   -9.90      1.5      1.3    81      0.0      0.0   100      1.5     1.3     81
     3    12  1996    -9    0      465.0     0.0      0.0    0.0    0.0    0.0      1.8      0.0   -9.90      1.4      1.0    71      0.0      0.0   100      1.4     1.0     71
     4    12  1996    -9    0      462.9     0.0      0.0    0.0    0.0    0.0      1.2      0.0   -9.90      1.5      1.0    63      0.0      0.0   100      1.5     1.0     63
     5    12  1996     1    1      461.3     0.0      0.0    0.0    0.0    0.0      0.7      0.0   -9.90      1.5      0.9    57      0.0      0.0   100      1.5     0.9     57
     6    12  1996     2    1      460.3     0.0      0.0    0.0    0.0    0.0      0.3      0.0   -9.90      1.3      0.7    52      0.0      0.0   100      1.3     0.7     52
     7    12  1996     3    1      459.3     0.0      0.0    0.0    0.0    0.0      0.2      0.0   -9.90      1.7      0.8    48      0.0      0.0   100      1.7     0.8     48
     8    12  1996     4    1      458.7     0.0      0.0    0.0    0.0    0.0      0.1      0.0   -9.90      1.2      0.5    45      0.0      0.0   100      1.2     0.5     45
     9    12  1996     5    1      493.0    39.2      0.0    0.0   35.6    3.6      0.0      0.0   -9.90      1.2      1.2   100      0.0      0.0   100      1.2     1.2    100
    10    12  1996     6    1      493.1     3.0      0.0    0.0    3.0    0.0      1.6      0.0   -9.90      1.3      1.3   100      0.0      0.0   100      1.3     1.3    100
    11    12  1996     7    1      487.5     1.6      0.0    0.0    1.6    0.0      5.8      0.0   -9.90      1.3      1.3   100      0.0      0.0   100      1.3     1.3    100
    12    12  1996     8    1      496.6    19.2      0.0    0.0   18.2    1.0      8.1      0.0   -9.90      1.0      1.0   100      0.0      0.0   100      1.0     1.0    100
    13    12  1996     9    1      490.6     3.0      0.0    0.0    3.0    0.0      7.7      0.0   -9.90      1.2      1.2   100      0.0      0.0   100      1.2     1.2    100
    14    12  1996    10    1      502.4    22.2      0.0    0.0   20.4    1.8      7.1      0.0   -9.90      1.5      1.5   100      0.0      0.0   100      1.5     1.5    100
    15    12  1996    11    1      494.0     0.2      0.0    0.0    0.2    0.0      7.6      0.0   -9.90      1.0      1.0    97      0.0      0.0   100      1.0     1.0     97
    16    12  1996    12    1      485.2     0.4      0.0    0.0    0.4    0.0      8.4      0.0   -9.90      0.9      0.9    98      0.0      0.0   100      0.9     0.9     98
    17    12  1996    13    1      476.8     0.2      0.0    0.0    0.2    0.0      7.6      0.0   -9.90      1.0      1.0    96      0.0      0.0   100      1.0     1.0     96
    18    12  1996    14    1      470.5     0.0      0.0    0.0    0.0    0.0      5.5      0.0   -9.90      1.0      0.8    84      0.0      0.0   100      1.0     0.8     84
    19    12  1996    15    1      466.4     0.2      0.0    0.0    0.2    0.0      3.2      0.0   -9.90      1.1      1.1    96      0.0      0.0   100      1.1     1.1     96
    20    12  1996    16    1      469.2     5.8      0.0    0.0    5.8    0.0      1.7      0.0   -9.90      1.3      1.3   100      0.0      0.0   100      1.3     1.3    100
    21    12  1996    17    1      467.2     0.2      0.0    0.0    0.2    0.0      0.9      0.0   -9.90      1.4      1.3    94      0.0      0.0   100      1.4     1.3     94
    22    12  1996    18    1      465.2     0.0      0.0    0.0    0.0    0.0      0.7      0.0   -9.90      1.5      1.2    81      0.0      0.0   100      1.5     1.2     81
    23    12  1996    19    1      464.3     1.1      0.0    0.0    1.1    0.0      0.6      0.0   -9.90      1.4      1.4   100      0.0      0.0   100      1.4     1.4    100
    24    12  1996    20    1      467.7     5.1      0.0    0.0    5.1    0.0      0.4      0.0   -9.90      1.2      1.2   100      0.0      0.0   100      1.2     1.2    100
    25    12  1996    21    1      477.1    10.8      0.0    0.0   10.8    0.0      0.3      0.0   -9.90      1.0      1.0   100      0.1      0.1   100      1.1     1.1    100
    26    12  1996    22    2      474.9     0.2      0.0    0.0    0.2    0.0      0.8      0.0   -9.90      1.6      1.5    94      0.2      0.2   100      1.8     1.7     95
    27    12  1996    23    2      472.2     0.0      0.0    0.0    0.0    0.0      1.8      0.0   -9.90      1.1      0.7    67      0.1      0.1   100      1.2     0.9     70
    28    12  1996    24    2      469.3     0.0      0.0    0.0    0.0    0.0      2.4      0.0   -9.90      0.9      0.5    58      0.1      0.1   100      1.0     0.6     63
    29    12  1996    25    2      466.8     0.0      0.0    0.0    0.0    0.0      2.0      0.0   -9.90      0.6      0.3    55      0.1      0.1   100      0.7     0.4     60
    30    12  1996    26    2      465.1     0.2      0.0    0.0    0.2    0.0      1.3      0.0   -9.90      0.6      0.6    98      0.1      0.1   100      0.7     0.7     99
    31    12  1996    27    2      464.2     1.0      0.0    0.0    1.0    0.0      0.7      0.0   -9.90      1.1      1.1   100      0.1      0.1   100      1.2     1.2    100
     1     1  1997    28    2      469.6     6.2      0.0    0.0    6.2    0.0      0.3      0.0   -9.90      0.4      0.4   100      0.1      0.1   100      0.4     0.4    100
     2     1  1997    29    2      473.6     5.2      0.0    0.0    5.2    0.0      0.3      0.0   -9.90      0.8      0.8   100      0.1      0.1   100      0.9     0.9    100
     3     1  1997    30    2      482.4    10.3      0.0    0.0   10.3    0.0      0.7      0.0   -9.90      0.7      0.7   100      0.1      0.1   100      0.8     0.8    100
     4     1  1997    31    2      491.2    11.2      0.0    0.0   11.2    0.0      1.7      0.0   -9.90      0.6      0.6   100      0.1      0.1   100      0.7     0.7    100
     5     1  1997    32    2      501.1    14.4      0.0    0.0   14.2    0.2      3.6      0.0   -9.90      0.7      0.7   100      0.1      0.1   100      0.8     0.8    100
     6     1  1997    33    2      494.8     0.6      0.0    0.0    0.6    0.0      6.2      0.0   -9.90      0.6      0.6   100      0.1      0.1   100      0.7     0.7    100
     7     1  1997    34    2      486.2     0.0      0.0    0.0    0.0    0.0      7.8      0.0   -9.90      0.7      0.6    98      0.1      0.1   100      0.8     0.8     99
     8     1  1997    35    2      477.8     0.0      0.0    0.0    0.0    0.0      7.7      0.0   -9.90      0.7      0.6    75      0.1      0.1   100      0.9     0.7     79
     9     1  1997    36    2      478.3     6.9      0.0    0.0    6.9    0.0      5.8      0.0   -9.90      0.5      0.5   100      0.1      0.1   100      0.6     0.6    100
    10     1  1997    37    2      477.5     3.4      0.0    0.0    3.4    0.0      4.0      0.0   -9.90      0.3      0.3   100      0.1      0.1   100      0.3     0.3    100
    11     1  1997    38    2      473.8     0.0      0.0    0.0    0.0    0.0      2.7      0.0   -9.90      0.8      0.8   100      0.2      0.2   100      1.0     1.0    100
    12     1  1997    39    2      469.7     0.0      0.0    0.0    0.0    0.0      2.4      0.0   -9.90      1.4      1.4   100      0.3      0.3   100      1.7     1.7    100
    13     1  1997    40    2      465.7     0.0      0.0    0.0    0.0    0.0      2.2      0.0   -9.90      1.5      1.4   100      0.3      0.3   100      1.8     1.8    100
    14     1  1997    41    2      462.8     0.0      0.0    0.0    0.0    0.0      1.6      0.0   -9.90      1.3      1.1    86      0.3      0.3   100      1.5     1.4     89
    15     1  1997    42    2      460.8     0.0      0.0    0.0    0.0    0.0      0.9      0.0   -9.90      1.1      0.8    74      0.2      0.2   100      1.3     1.0     79
    16     1  1997    43    2      459.8     0.0      0.0    0.0    0.0    0.0      0.5      0.0   -9.90      0.5      0.4    67      0.1      0.1   100      0.7     0.5     74
    17     1  1997    44    2      459.4     0.2      0.0    0.0    0.2    0.0      0.2      0.0   -9.90      0.4      0.4    99      0.1      0.1   100      0.4     0.4     99
    18     1  1997    45    2      458.9     0.2      0.0    0.0    0.2    0.0      0.1      0.0   -9.90      0.4      0.4   100      0.1      0.1   100      0.6     0.5    100
    19     1  1997    46    2      458.7     0.2      0.0    0.0    0.2    0.0      0.0      0.0   -9.90      0.3      0.3   100      0.1      0.1   100      0.3     0.3    100
    20     1  1997    47    2      458.3     0.4      0.0    0.0    0.4    0.0      0.0      0.0   -9.90      0.6      0.6    99      0.2      0.2   100      0.8     0.8     99
    21     1  1997    48    2      458.1     1.0      0.0    0.0    1.0    0.0      0.0      0.0   -9.90      1.0      1.0   100      0.3      0.3   100      1.2     1.2    100
    22     1  1997    49    2      456.9     0.0      0.0    0.0    0.0    0.0      0.0      0.0   -9.90      0.9      0.9    96      0.3      0.3   100      1.2     1.2     97
    23     1  1997    50    2      455.8     0.0      0.0    0.0    0.0    0.0      0.0      0.0   -9.90      1.0      0.8    82      0.3      0.3   100      1.3     1.1     86
    24     1  1997    51    2      455.1     0.0      0.0    0.0    0.0    0.0      0.0      0.0   -9.90      0.7      0.5    72      0.2      0.2   100      0.9     0.7     79
    25     1  1997    52    2      454.5     0.0      0.0    0.0    0.0    0.0      0.0      0.0   -9.90      0.7      0.4    66      0.2      0.2   100      0.9     0.7     74
    26     1  1997    53    2      453.6     0.0      0.0    0.0    0.0    0.0      0.0      0.0   -9.90      0.9      0.5    60      0.3      0.3   100      1.2     0.8     70
    27     1  1997    54    2      452.7     0.0      0.0    0.0    0.0    0.0      0.0      0.0   -9.90      1.0      0.5    54      0.3      0.3   100      1.3     0.9     66
    28     1  1997    55    2      452.0     0.0      0.0    0.0    0.0    0.0      0.0      0.0   -9.90      0.9      0.4    48      0.3      0.3   100      1.2     0.8     62
    29     1  1997    56    2      450.9     0.0      0.0    0.0    0.0    0.0      0.0      0.0   -9.90      1.3      0.5    43      0.5      0.5   100      1.8     1.0     59
    30     1  1997    57    2      450.1     0.0      0.0    0.0    0.0    0.0      0.0      0.0   -9.90      1.1      0.4    37      0.4      0.4   100      1.5     0.9     56
    31     1  1997    58    2      449.3     0.0      0.0    0.0    0.0    0.0      0.0      0.0   -9.90      1.1      0.4    33      0.5      0.5   100      1.5     0.8     53
     1     2  1997    59    2      448.6     0.0      0.0    0.0    0.0    0.0      0.0      0.0   -9.90      0.8      0.3    30      0.4      0.4   100      1.2     0.6     51
     2     2  1997    60    2      448.1     0.2      0.0    0.0    0.2    0.0      0.0      0.0   -9.90      0.8      0.4    45      0.4      0.4   100      1.2     0.7     62
     3     2  1997    61    2      447.5     0.0      0.0    0.0    0.0    0.0      0.0      0.0   -9.90      0.8      0.2    26      0.4      0.4   100      1.2     0.6     49
     4     2  1997    62    2      447.4     0.6      0.0    0.0    0.6    0.0      0.0      0.0   -9.90      0.4      0.4   100      0.2      0.2   100      0.7     0.7    100
     5     2  1997    63    2      449.6     2.6      0.0    0.0    2.6    0.0      0.0      0.0   -9.90      0.3      0.3   100      0.1      0.1   100      0.4     0.4    100
     6     2  1997    64    2      449.2     0.8      0.0    0.0    0.8    0.0      0.0      0.0   -9.90      0.8      0.8   100      0.4      0.4   100      1.2     1.2    100
     7     2  1997    65    2      448.0     0.0      0.0    0.0    0.0    0.0      0.0      0.0   -9.90      1.4      0.4    29      0.8      0.8   100      2.2     1.2     54
     8     2  1997    66    2      447.1     0.0      0.0    0.0    0.0    0.0      0.0      0.0   -9.90      1.2      0.3    25      0.7      0.7   100      1.9     1.0     52
     9     2  1997    67    2      446.2     0.0      0.0    0.0    0.0    0.0      0.0      0.0   -9.90      1.1      0.2    22      0.6      0.6   100      1.7     0.8     50
    10     2  1997    68    2      445.6     0.0      0.0    0.0    0.0    0.0      0.0      0.0   -9.90      0.8      0.1    20      0.5      0.5   100      1.2     0.6     50
    11     2  1997    69    2      445.0     0.0      0.0    0.0    0.0    0.0      0.0      0.0   -9.90      0.8      0.1    18      0.5      0.5   100      1.3     0.7     49
    12     2  1997    70    2      444.4     0.0      0.0    0.0    0.0    0.0      0.0      0.0   -9.90      0.7      0.1    16      0.4      0.4   100      1.1     0.5     50
    13     2  1997    71    2      443.8     0.2      0.0    0.0    0.2    0.0      0.0      0.0   -9.90      0.8      0.3    37      0.5      0.5   100      1.3     0.8     63
    14     2  1997    72    2      443.0     0.0      0.0    0.0    0.0    0.0      0.0      0.0   -9.90      0.9      0.1    15      0.6      0.6   100      1.5     0.8     51
    15     2  1997    73    2      450.8     8.2      0.0    0.0    8.2    0.0      0.0      0.0   -9.90      0.2      0.2   100      0.2      0.2   100      0.4     0.4    100
    16     2  1997    74    2      449.8     1.2      0.0    0.0    1.2    0.0      0.0      0.0   -9.90      1.2      1.2    99      1.0      1.0   100      2.2     2.2     99
    17     2  1997    75    2      448.4     0.0      0.0    0.0    0.0    0.0      0.0      0.0   -9.90      1.2      0.4    36      0.9      0.9   100      2.1     1.4     65
    18     2  1997    76    2      447.1     0.0      0.0    0.0    0.0    0.0      0.0      0.0   -9.90      1.1      0.3    30      1.0      1.0   100      2.1     1.3     62
    19     2  1997    77    2      445.9     0.0      0.0    0.0    0.0    0.0      0.0      0.0   -9.90      1.1      0.3    25      1.0      1.0   100      2.1     1.3     60
    20     2  1997    78    2      444.6     0.0      0.0    0.0    0.0    0.0      0.0      0.0   -9.90      1.1      0.2    21      1.1      1.1   100      2.2     1.3     59
    21     2  1997    79    2      443.7     0.0      0.0    0.0    0.0    0.0      0.0      0.0   -9.90      0.8      0.1    18      0.8      0.8   100      1.5     0.9     58
    22     2  1997    80    2      442.7     0.0      0.0    0.0    0.0    0.0      0.0      0.0   -9.90      0.8      0.1    15      0.8      0.8   100      1.7     1.0     58
    23     2  1997    81    2      441.7     0.0      0.0    0.0    0.0    0.0      0.0      0.0   -9.90      0.8      0.1    14      0.9      0.9   100      1.8     1.0     59
    24     2  1997    82    2      441.7     0.9      0.0    0.0    0.9    0.0      0.0      0.0   -9.90      0.4      0.4   100      0.5      0.5   100      0.9     0.9    100
    25     2  1997    83    2      440.8     0.0      0.0    0.0    0.0    0.0      0.0      0.0   -9.90      0.4      0.4   100      0.5      0.5   100      0.9     0.9    100
    26     2  1997    84    2      440.3     0.0      0.0    0.0    0.0    0.0      0.0      0.0   -9.90      0.3      0.1    37      0.4      0.4   100      0.8     0.6     73
    27     2  1997    85    2      441.6     3.4      0.0    0.0    3.4    0.0      0.0      0.0   -9.90      0.9      0.9   100      1.2      1.2   100      2.1     2.1    100
    28     2  1997    86    2      439.3     0.0      0.0    0.0    0.0    0.0      0.0      0.0   -9.90      0.9      0.9   100      1.4      1.4   100      2.3     2.3    100
     1     3  1997    87    2      436.6     0.0      0.0    0.0    0.0    0.0      0.0      0.0   -9.90      1.1      1.1   100      1.6      1.6   100      2.6     2.6    100
     2     3  1997    88    2      434.3     0.0      0.0    0.0    0.0    0.0      0.0      0.0   -9.90      1.2      0.6    47      1.8      1.8   100      3.0     2.3     79
     3     3  1997    89    2      432.3     0.0      0.0    0.0    0.0    0.0      0.0      0.0   -9.90      1.2      0.1     7      2.0      2.0   100      3.2     2.0     64
     4     3  1997    90    2      430.4     0.0      0.0    0.0    0.0    0.0      0.0      0.0   -9.90      1.0      0.1     6      1.8      1.8   100      2.9     1.9     66
     5     3  1997    91    2      429.2     0.0      0.0    0.0    0.0    0.0      0.0      0.0   -9.90      0.6      0.0     5      1.2      1.2   100      1.8     1.2     68
     6     3  1997    92    2      428.2     0.0      0.0    0.0    0.0    0.0      0.0      0.0   -9.90      0.5      0.0     5      1.0      1.0   100      1.4     1.0     69
     7     3  1997    93    2      425.8     0.0      0.0    0.0    0.0    0.0      0.0      0.0   -9.90      1.0      0.0     4      2.4      2.4   100      3.4     2.4     71
     8     3  1997    94    2      423.5     0.0      0.0    0.0    0.0    0.0      0.0      0.0   -9.90      0.9      0.0     3      2.2      2.2   100      3.1     2.2     73
     9     3  1997    95    2      421.3     0.0      0.0    0.0    0.0    0.0      0.0      0.0   -9.90      0.8      0.0     3      2.2      2.2   100      3.0     2.2     74
    10     3  1997    96    2      418.6     0.0      0.0    0.0    0.0    0.0      0.0      0.0   -9.90      0.9      0.0     3      2.7      2.7   100      3.6     2.7     75
    11     3  1997    97    2      416.5     0.0      0.0    0.0    0.0    0.0      0.0      0.0   -9.90      0.7      0.0     3      2.1      2.1   100      2.8     2.1     76
    12     3  1997    98    2      413.8     0.0      0.0    0.0    0.0    0.0      0.0      0.0   -9.90      0.8      0.0     3      2.7      2.7   100      3.5     2.7     77
    13     3  1997    99    2      411.3     0.0      0.0    0.0    0.0    0.0      0.0      0.0   -9.90      0.7      0.0     3      2.5      2.5   100      3.2     2.5     78
    14     3  1997   100    2      409.2     0.0      0.0    0.0    0.0    0.0      0.0      0.0   -9.90      0.6      0.0     3      2.1      2.1   100      2.6     2.1     79
    15     3  1997   101    2      407.0     0.0      0.0    0.0    0.0    0.0      0.0      0.0   -9.90      0.6      0.0     2      2.2      2.2   100      2.8     2.2     80
    16     3  1997   102    2      404.3     0.0      0.0    0.0    0.0    0.0      0.0      0.0   -9.90      0.6      0.0     2      2.7      2.7   100      3.3     2.7     81
    17     3  1997   103    2      402.0     0.0      0.0    0.0    0.0    0.0      0.0      0.0   -9.90      0.5      0.0     2      2.3      2.3   100      2.9     2.4     82
    18     3  1997   104    2      399.7     0.0      0.0    0.0    0.0    0.0      0.0      0.0   -9.90      0.5      0.0     2      2.3      2.3   100      2.8     2.3     83
    19     3  1997   105    2      397.5     0.0      0.0    0.0    0.0    0.0      0.0      0.0   -9.90      0.4      0.0     2      2.2      2.2   100      2.6     2.2     84
    20     3  1997   106    2      394.8     0.0      0.0    0.0    0.0    0.0      0.0      0.0   -9.90      0.5      0.0     2      2.6      2.6   100      3.1     2.6     85
    21     3  1997   107    2      392.3     0.0      0.0    0.0    0.0    0.0      0.0      0.0   -9.90      0.4      0.0     2      2.5      2.5   100      3.0     2.5     85
    22     3  1997   108    2      390.1     0.0      0.0    0.0    0.0    0.0      0.0      0.0   -9.90      0.4      0.0     2      2.3      2.3   100      2.6     2.3     86
    23     3  1997   109    2      388.3     0.0      0.0    0.0    0.0    0.0      0.0      0.0   -9.90      0.3      0.0     2      1.7      1.7   100      2.0     1.7     86
    24     3  1997   110    2      404.6    17.2      0.0    0.0   17.2    0.0      0.0      0.0   -9.90      0.1      0.1   100      0.9      0.9   100      1.0     1.0    100
    25     3  1997   111    2      412.2    10.2      0.0    0.0   10.2    0.0      0.0      0.0   -9.90      0.3      0.3   100      2.2      2.2   100      2.5     2.5    100
    26     3  1997   112    2      408.6     0.0      0.0    0.0    0.0    0.0      0.0      0.0   -9.90      0.5      0.5   100      3.2      3.2   100      3.6     3.6    100
    27     3  1997   113    2      405.3     0.0      0.0    0.0    0.0    0.0      0.0      0.0   -9.90      0.4      0.4   100      2.9      2.9   100      3.3     3.3    100
    28     3  1997   114    2      403.0     0.0      0.0    0.0    0.0    0.0      0.0      0.0   -9.90      0.3      0.3   100      2.0      2.0   100      2.3     2.3    100
    29     3  1997   115    2      405.0     5.6      0.0    0.0    5.6    0.0      0.0      0.0   -9.90      0.4      0.4   100      3.2      3.2   100      3.6     3.6    100
    30     3  1997   116    2      401.5     0.0      0.0    0.0    0.0    0.0      0.0      0.0   -9.90      0.4      0.4   100      3.0      3.0   100      3.4     3.4    100
    31     3  1997   117    2      397.5     0.0      0.0    0.0    0.0    0.0      0.0      0.0   -9.90      0.4      0.4   100      3.6      3.6   100      4.1     4.1    100
     1     4  1997   118    2      394.2     0.0      0.0    0.0    0.0    0.0      0.0      0.0   -9.90      0.3      0.3   100      3.0      3.0   100      3.3     3.3    100
     2     4  1997   119    2      391.6     0.0      0.0    0.0    0.0    0.0      0.0      0.0   -9.90      0.3      0.3   100      2.3      2.3   100      2.5     2.5    100
     3     4  1997   120    2      387.8     0.0      0.0    0.0    0.0    0.0      0.0      0.0   -9.90      0.4      0.4   100      3.5      3.5   100      3.9     3.9    100
     4     4  1997   121    2      384.7     0.0      0.0    0.0    0.0    0.0      0.0      0.0   -9.90      0.3      0.3   100      2.8      2.8   100      3.1     3.1    100
     5     4  1997   122    2      381.0     0.0      0.0    0.0    0.0    0.0      0.0      0.0   -9.90      0.3      0.3   100      3.4      3.4   100      3.7     3.7    100
     6     4  1997   123    2      379.0     0.0      0.0    0.0    0.0    0.0      0.0      0.0   -9.90      0.2      0.2   100      1.8      1.8   100      2.0     2.0    100
     7     4  1997   124    2      374.8     0.0      0.0    0.0    0.0    0.0      0.0      0.0   -9.90      0.3      0.3   100      3.8      3.8   100      4.2     4.2    100
     8     4  1997   125    2      370.9     0.0      0.0    0.0    0.0    0.0      0.0      0.0   -9.90      0.3      0.3   100      3.6      3.6   100      4.0     4.0    100
     9     4  1997   126    2      367.6     0.0      0.0    0.0    0.0    0.0      0.0      0.0   -9.90      0.3      0.3   100      3.0      3.0   100      3.3     3.3    100
    10     4  1997   127    2      364.0     0.0      0.0    0.0    0.0    0.0      0.0      0.0   -9.90      0.3      0.3   100      3.3      3.3   100      3.5     3.5    100
    11     4  1997   128    2      360.7     0.0      0.0    0.0    0.0    0.0      0.0      0.0   -9.90      0.2      0.2   100      3.1      3.1   100      3.3     3.3    100
    12     4  1997   129    2      357.9     0.2      0.0    0.0    0.2    0.0      0.0      0.0   -9.90      0.2      0.2    92      2.9      2.9   100      3.1     3.1     99
    13     4  1997   130    2      354.1     0.0      0.0    0.0    0.0    0.0      0.0      0.0   -9.90      0.3      0.0     2      3.8      3.8   100      4.1     3.8     93
    14     4  1997   131    2      351.4     0.0      0.0    0.0    0.0    0.0      0.0      0.0   -9.90      0.2      0.0     2      2.7      2.7   100      2.9     2.7     93
    15     4  1997   132    2      349.4     0.0      0.0    0.0    0.0    0.0      0.0      0.0   -9.90      0.1      0.0     2      2.0      2.0   100      2.1     2.0     94
    16     4  1997   133    2      345.6     0.0      0.0    0.0    0.0    0.0      0.0      0.0   -9.90      0.3      0.0     2      3.8      3.8   100      4.1     3.8     94
    17     4  1997   134    2      341.8     0.0      0.0    0.0    0.0    0.0      0.0      0.0   -9.90      0.2      0.0     2      3.8      3.8   100      4.1     3.8     94
    18     4  1997   135    2      337.9     0.0      0.0    0.0    0.0    0.0      0.0      0.0   -9.90      0.2      0.0     2      3.9      3.9   100      4.2     3.9     94
    19     4  1997   136    2      334.5     0.0      0.0    0.0    0.0    0.0      0.0      0.0   -9.90      0.2      0.0     2      3.3      3.3   100      3.5     3.3     94
    20     4  1997   137    2      334.9     0.8      0.0    0.0    0.8    0.0      0.0      0.0   -9.90      0.0      0.0   100      0.4      0.4   100      0.4     0.4    100
    21     4  1997   138    2      389.1    54.4      0.0    0.0   54.4    0.0      0.0      0.0   -9.90      0.0      0.0   100      0.2      0.2   100      0.2     0.2    100
    22     4  1997   139    2      403.9    16.0      0.0    0.0   15.6    0.4      0.0      0.0   -9.90      0.0      0.0   100      0.7      0.7   100      0.8     0.8    100
    23     4  1997   140    2      401.1     0.0      0.0    0.0    0.0    0.0      0.0      0.0   -9.90      0.2      0.2   100      2.7      2.7   100      2.9     2.9    100
    24     4  1997   141    2      397.0     0.0      0.0    0.0    0.0    0.0      0.0      0.0   -9.90      0.2      0.2   100      3.9      3.9   100      4.1     4.1    100
    25     4  1997   142    2      392.7     0.0      0.0    0.0    0.0    0.0      0.0      0.0   -9.90      0.2      0.2   100      4.1      4.1   100      4.3     4.3    100
    26     4  1997   143    2      389.7     0.0      0.0    0.0    0.0    0.0      0.0      0.0   -9.90      0.1      0.1   100      2.8      2.8   100      3.0     3.0    100
    27     4  1997   144    2      402.5    14.8      0.0    0.0   14.8    0.0      0.0      0.0   -9.90      0.1      0.1   100      1.9      1.9   100      2.0     2.0    100
    28     4  1997   145    2      411.7    12.2      0.0    0.0   12.2    0.0      0.0      0.0   -9.90      0.1      0.1   100      2.9      2.9   100      3.1     3.1    100
    29     4  1997   146    2      414.6     4.6      0.0    0.0    4.6    0.0      0.0      0.0   -9.90      0.1      0.1   100      1.6      1.6   100      1.7     1.7    100
    30     4  1997   147    2      412.2     0.0      0.0    0.0    0.0    0.0      0.0      0.0   -9.90      0.1      0.1   100      2.3      2.3   100      2.4     2.4    100
     1     5  1997   148    2      407.6     0.0      0.0    0.0    0.0    0.0      0.0      0.0   -9.90      0.2      0.2   100      4.4      4.4   100      4.6     4.6    100
     2     5  1997   149    2      402.5     0.0      0.0    0.0    0.0    0.0      0.0      0.0   -9.90      0.2      0.2   100      4.9      4.9   100      5.1     5.1    100
     3     5  1997   150    2      397.8     0.0      0.0    0.0    0.0    0.0      0.0      0.0   -9.90      0.2      0.2   100      4.6      4.6   100      4.7     4.7    100
     4     5  1997   151    2      393.0     0.0      0.0    0.0    0.0    0.0      0.0      0.0   -9.90      0.2      0.2   100      4.6      4.6   100      4.7     4.7    100
     5     5  1997   152    2      389.3     0.2      0.0    0.0    0.2    0.0      0.0      0.0   -9.90      0.1      0.1   100      3.8      3.8   100      4.0     4.0    100
     6     5  1997   153    2      384.5     0.4      0.0    0.0    0.4    0.0      0.0      0.0   -9.90      0.2      0.2   100      5.0      5.0   100      5.2     5.2    100
     7     5  1997   154    2      384.9     4.0      0.0    0.0    4.0    0.0      0.0      0.0   -9.90      0.1      0.1   100      3.5      3.5   100      3.6     3.6    100
     8     5  1997   155    2      407.2    23.4      0.0    0.0   23.4    0.0      0.0      0.0   -9.90      0.0      0.0   100      1.1      1.1   100      1.1     1.1    100
     9     5  1997   156    2      403.7     0.0      0.0    0.0    0.0    0.0      0.0      0.0   -9.90      0.1      0.1   100      3.4      3.4   100      3.5     3.5    100
    10     5  1997   157    2      399.4     0.0      0.0    0.0    0.0    0.0      0.0      0.0   -9.90      0.1      0.1   100      4.2      4.2   100      4.3     4.3    100
    11     5  1997   158    2      395.0     0.2      0.0    0.0    0.2    0.0      0.0      0.0   -9.90      0.1      0.1   100      4.5      4.5   100      4.6     4.6    100
    12     5  1997   159    2      390.1     0.0      0.0    0.0    0.0    0.0      0.0      0.0   -9.90      0.1      0.1    81      4.7      4.7   100      4.8     4.8    100
    13     5  1997   160    2      384.9     0.0      0.0    0.0    0.0    0.0      0.0      0.0   -9.90      0.1      0.0    32      5.1      5.1   100      5.3     5.2     98
    14     5  1997   161    2      379.8     0.0      0.0    0.0    0.0    0.0      0.0      0.0   -9.90      0.1      0.0    18      5.2      5.2   100      5.3     5.2     98
    15     5  1997   162    2      374.3     0.0      0.0    0.0    0.0    0.0      0.0      0.0   -9.90      0.1      0.0    10      5.5      5.5   100      5.6     5.5     98
    16     5  1997   163    2      371.0     0.8      0.0    0.0    0.8    0.0      0.0      0.0   -9.90      0.1      0.1   100      4.0      4.0   100      4.1     4.1    100
    17     5  1997   164    2      365.9     0.0      0.0    0.0    0.0    0.0      0.0      0.0   -9.90      0.1      0.1   100      5.0      5.0   100      5.1     5.1    100
    18     5  1997   165    2      361.4     0.0      0.0    0.0    0.0    0.0      0.0      0.0   -9.90      0.1      0.1   100      4.4      4.4   100      4.5     4.5    100
    19     5  1997   166    2      357.1     0.2      0.0    0.0    0.2    0.0      0.0      0.0   -9.90      0.1      0.1   100      4.4      4.4   100      4.5     4.5    100
    20     5  1997   167    3      352.8     0.0      0.0    0.0    0.0    0.0      0.0      0.0   -9.90      0.1      0.1   100      4.2      4.2   100      4.3     4.3    100
    21     5  1997   168    3      366.0    15.4      0.0    0.0   15.4    0.0      0.0      0.0   -9.90      0.0      0.0   100      2.2      2.2   100      2.2     2.2    100
    22     5  1997   169    3      366.7     4.6      0.0    0.0    4.6    0.0      0.0      0.0   -9.90      0.1      0.1   100      3.9      3.9   100      4.0     4.0    100
    23     5  1997   170    3      362.2     0.2      0.0    0.0    0.2    0.0      0.0      0.0   -9.90      0.1      0.1   100      4.6      4.6   100      4.7     4.7    100
    24     5  1997   171    3      358.1     0.2      0.0    0.0    0.2    0.0      0.0      0.0   -9.90      0.1      0.1   100      4.2      4.2   100      4.3     4.3    100
    25     5  1997   172    3      353.1     0.0      0.0    0.0    0.0    0.0      0.0      0.0   -9.90      0.1      0.1   100      4.9      4.9   100      5.0     5.0    100
    26     5  1997   173    3      348.5     0.0      0.0    0.0    0.0    0.0      0.0      0.0   -9.90      0.1      0.0    27      4.5      4.5   100      4.7     4.6     98
    27     5  1997   174    3      343.4     0.0      0.0    0.0    0.0    0.0      0.0      0.0   -9.90      0.1      0.0     4      5.1      5.1   100      5.2     5.1     98
    28     5  1997   175    3      337.7     0.0      0.0    0.0    0.0    0.0      0.0      0.0   -9.90      0.1      0.0     3      5.7      5.7   100      5.8     5.7     98
    29     5  1997   176    3      331.1     0.0      0.0    0.0    0.0    0.0      0.0      0.0   -9.90      0.2      0.0     3      6.7      6.7   100      6.8     6.7     98
    30     5  1997   177    3      326.2     0.4      0.0    0.0    0.4    0.0      0.0      0.0   -9.90      0.1      0.1   100      5.2      5.2   100      5.3     5.3    100
    31     5  1997   178    3      321.1     0.0      0.0    0.0    0.0    0.0      0.0      0.0   -9.90      0.1      0.1   100      5.0      5.0   100      5.1     5.1    100
     1     6  1997   179    3      369.1    51.0      0.0    0.0   51.0    0.0      0.0      0.0   -9.90      0.1      0.1   100      3.0      3.0   100      3.0     3.0    100
     2     6  1997   180    3      372.9     6.6      0.0    0.0    6.6    0.0      0.0      0.0   -9.90      0.1      0.1   100      2.7      2.7   100      2.8     2.8    100
     3     6  1997   181    4      369.5     0.2      0.0    0.0    0.2    0.0      0.0      0.0   -9.90      0.1      0.1   100      3.5      3.5   100      3.6     3.6    100
     4     6  1997   182    4      365.3     0.0      0.0    0.0    0.0    0.0      0.0      0.0   -9.90      0.1      0.1   100      4.1      4.1   100      4.2     4.2    100
     5     6  1997   183    4      374.9    10.8      0.0    0.0   10.8    0.0      0.0      0.0   -9.90      0.0      0.0   100      1.2      1.2   100      1.2     1.2    100
     6     6  1997   184    4      378.7     6.6      0.0    0.0    6.6    0.0      0.0      0.0   -9.90      0.1      0.1   100      2.7      2.7   100      2.8     2.8    100
     7     6  1997   185    4      374.3     0.2      0.0    0.0    0.2    0.0      0.0      0.0   -9.90      0.1      0.1   100      4.5      4.5   100      4.6     4.6    100
     8     6  1997   186    4      369.4     0.0      0.0    0.0    0.0    0.0      0.0      0.0   -9.90      0.1      0.1   100      4.8      4.8   100      4.9     4.9    100
     9     6  1997   187    4      364.2     0.0      0.0    0.0    0.0    0.0      0.0      0.0   -9.90      0.1      0.1    64      5.1      5.1   100      5.2     5.2     99
    10     6  1997   188    4      359.0     0.0      0.0    0.0    0.0    0.0      0.0      0.0   -9.90      0.1      0.0    41      5.1      5.1   100      5.2     5.2     99
    11     6  1997   189    4      354.4     0.0      0.0    0.0    0.0    0.0      0.0      0.0   -9.90      0.1      0.0    26      4.6      4.6   100      4.7     4.6     98
    12     6  1997   190    4      348.8     0.0      0.0    0.0    0.0    0.0      0.0      0.0   -9.90      0.1      0.0    16      5.5      5.5   100      5.7     5.6     98
    13     6  1997   191    4      344.8     0.0      0.0    0.0    0.0    0.0      0.0      0.0   -9.90      0.1      0.0    10      4.1      4.1   100      4.2     4.1     98
    14     6  1997   192    4      340.0     0.0      0.0    0.0    0.0    0.0      0.0      0.0   -9.90      0.1      0.0     6      4.8      4.8   100      4.9     4.8     98
    15     6  1997   193    4      333.6     0.0      0.0    0.0    0.0    0.0      0.0      0.0   -9.90      0.1      0.0     5      6.3      6.3   100      6.5     6.3     98
    16     6  1997   194    4      328.0     0.0      0.0    0.0    0.0    0.0      0.0      0.0   -9.90      0.1      0.0     3      5.7      5.7   100      5.8     5.7     98
    17     6  1997   195    4      322.5     0.0      0.0    0.0    0.0    0.0      0.0      0.0   -9.90      0.2      0.0     3      5.4      5.4   100      5.6     5.4     97
    18     6  1997   196    4      318.4     0.0      0.0    0.0    0.0    0.0      0.0      0.0   -9.90      0.1      0.0     2      4.1      4.1   100      4.3     4.1     97
    19     6  1997   197    4      320.5     6.6      0.0    0.0    6.6    0.0      0.0      0.0   -9.90      0.2      0.2   100      4.3      4.3   100      4.5     4.5    100
    20     6  1997   198    4      315.8     0.0      0.0    0.0    0.0    0.0      0.0      0.0   -9.90      0.2      0.2   100      4.5      4.5   100      4.7     4.7    100
    21     6  1997   199    4      311.9     0.2      0.0    0.0    0.2    0.0      0.0      0.0   -9.90      0.2      0.2   100      3.9      3.9   100      4.1     4.1    100
    22     6  1997   200    4      306.6     0.0      0.0    0.0    0.0    0.0      0.0      0.0   -9.90      0.3      0.0    14      5.3      5.3   100      5.6     5.3     96
    23     6  1997   201    4      302.1     0.0      0.0    0.0    0.0    0.0      0.0      0.0   -9.90      0.2      0.0     3      4.5      4.5   100      4.7     4.5     95
    24     6  1997   202    4      297.5     0.0      0.0    0.0    0.0    0.0      0.0      0.0   -9.90      0.3      0.0     3      4.6      4.6   100      4.9     4.6     95
    25     6  1997   203    4      293.0     0.0      0.0    0.0    0.0    0.0      0.0      0.0   -9.90      0.3      0.0     3      4.5      4.5   100      4.8     4.5     94
    26     6  1997   204    4      289.2     0.0      0.0    0.0    0.0    0.0      0.0      0.0   -9.90      0.3      0.0     3      3.7      3.7   100      4.0     3.7     94
    27     6  1997   205    4      284.1     0.0      0.0    0.0    0.0    0.0      0.0      0.0   -9.90      0.4      0.0     3      5.1      5.1   100      5.5     5.1     93
    28     6  1997   206    4      279.5     0.0      0.0    0.0    0.0    0.0      0.0      0.0   -9.90      0.4      0.0     3      4.6      4.6   100      5.0     4.6     92
    29     6  1997   207    4      275.2     0.0      0.0    0.0    0.0    0.0      0.0      0.0   -9.90      0.4      0.0     3      4.2      4.2   100      4.7     4.3     91
    30     6  1997   208    4      271.7     0.0      0.0    0.0    0.0    0.0      0.0      0.0   -9.90      0.4      0.0     3      3.6      3.6   100      4.0     3.6     90
     1     7  1997   209    4      267.9     0.0      0.0    0.0    0.0    0.0      0.0      0.0   -9.90      0.4      0.0     3      3.7      3.7   100      4.2     3.7     90
     2     7  1997   210    4      264.5     0.0      0.0    0.0    0.0    0.0      0.0      0.0   -9.90      0.5      0.0     3      3.4      3.4   100      3.8     3.4     89
     3     7  1997   211    4      260.4     0.0      0.0    0.0    0.0    0.0      0.0      0.0   -9.90      0.7      0.0     3      4.6      4.1    88      5.3     4.1     77
     4     7  1997   212    4      257.4     0.0      0.0    0.0    0.0    0.0      0.0      0.0   -9.90      0.5      0.0     3      3.1      3.0    96      3.7     3.0     82
     5     7  1997   213    4      256.2     2.2      0.0    0.0    2.2    0.0      0.0      0.0   -9.90      0.6      0.6   100      3.0      2.8    94      3.6     3.4     95
     6     7  1997   214    4      252.9     0.0      0.0    0.0    0.0    0.0      0.0      0.0   -9.90      0.6      0.6   100      3.0      2.7    90      3.6     3.3     92
     7     7  1997   215    4      249.4     0.0      0.0    0.0    0.0    0.0      0.0      0.0   -9.90      0.8      0.8   100      3.3      2.7    82      4.1     3.5     85
     8     7  1997   216    4      246.4     0.0      0.0    0.0    0.0    0.0      0.0      0.0   -9.90      0.9      0.3    27      3.5      2.7    76      4.5     2.9     66
     9     7  1997   217    4      244.0     0.0      0.0    0.0    0.0    0.0      0.0      0.0   -9.90      0.9      0.0     2      3.1      2.3    75      4.0     2.4     59
    10     7  1997   218    4      241.9     0.0      0.0    0.0    0.0    0.0      0.0      0.0   -9.90      1.0      0.0     2      2.9      2.1    73      3.9     2.2     56
    11     7  1997   219    4      239.9     0.0      0.0    0.0    0.0    0.0      0.0      0.0   -9.90      1.0      0.0     2      2.7      1.9    71      3.7     1.9     52
    12     7  1997   220    4      238.3     0.4      0.0    0.0    0.4    0.0      0.0      0.0   -9.90      1.0      0.4    41      2.3      1.7    71      3.3     2.1     62
    13     7  1997   221    4      236.8     0.0      0.0    0.0    0.0    0.0      0.0      0.0   -9.90      1.1      0.0     2      2.2      1.5    68      3.3     1.5     46
    14     7  1997   222    4      235.4     0.2      0.0    0.0    0.2    0.0      0.0      0.0   -9.90      1.2      0.2    19      2.0      1.3    67      3.1     1.5     49
    15     7  1997   223    4      234.3     0.2      0.0    0.0    0.2    0.0      0.0      0.0   -9.90      1.2      0.2    19      1.7      1.1    66      2.8     1.3     46
    16     7  1997   224    4      233.3     0.0      0.0    0.0    0.0    0.0      0.0      0.0   -9.90      1.6      0.0     2      1.6      1.0    61      3.2     1.0     32
    17     7  1997   225    4      232.6     0.0      0.0    0.0    0.0    0.0      0.0      0.0   -9.90      1.5      0.0     2      1.0      0.7    65      2.5     0.7     28
    18     7  1997   226    4      241.3    10.6      0.0    0.0   10.6    0.0      0.0      0.0   -9.90      1.4      1.4   100      0.6      0.5    77      2.0     1.9     93
    19     7  1997   227    4      239.1     0.0      0.0    0.0    0.0    0.0      0.0      0.0   -9.90      1.9      1.9   100      0.5      0.4    71      2.4     2.2     94
    20     7  1997   228    4      236.8     0.0      0.0    0.0    0.0    0.0      0.0      0.0   -9.90      2.1      2.1   100      0.3      0.2    68      2.4     2.3     96
    21     7  1997   229    4      235.0     0.0      0.0    0.0    0.0    0.0      0.0      0.0   -9.90      2.1      1.7    77      0.1      0.1    69      2.3     1.7     77
    22     7  1997   230    4      234.9     0.2      0.0    0.0    0.2    0.0      0.0      0.0   -9.90      3.2      0.3     9      0.0      0.0   100      3.2     0.3      9
    23     7  1997    -9    0      234.7     0.0      0.0    0.0    0.0    0.0      0.0      0.0   -9.90      6.9      0.2     3      0.0      0.0   100      6.9     0.2      3
    24     7  1997    -9    0      234.6     0.0      0.0    0.0    0.0    0.0      0.0      0.0   -9.90      5.3      0.2     3      0.0      0.0   100      5.3     0.2      3
    25     7  1997    -9    0      234.5     2.2      0.0    0.0    2.2    0.0      0.0      0.0   -9.90      4.7      2.3    48      0.0      0.0   100      4.7     2.3     48
    26     7  1997    -9    0      234.3     0.2      0.0    0.0    0.2    0.0      0.0      0.0   -9.90      6.2      0.4     6      0.0      0.0   100      6.2     0.4      6
    27     7  1997    -9    0      234.2     0.0      0.0    0.0    0.0    0.0      0.0      0.0   -9.90      5.6      0.2     3      0.0      0.0   100      5.6     0.2      3
    28     7  1997    -9    0      234.0     0.0      0.0    0.0    0.0    0.0      0.0      0.0   -9.90      6.4      0.2     3      0.0      0.0   100      6.4     0.2      3
    29     7  1997    -9    0      233.9     0.0      0.0    0.0    0.0    0.0      0.0      0.0   -9.90      6.2      0.2     3      0.0      0.0   100      6.2     0.2      3
    30     7  1997    -9    0      233.7     0.0      0.0    0.0    0.0    0.0      0.0      0.0   -9.90      7.5      0.2     3      0.0      0.0   100      7.5     0.2      3
    31     7  1997    -9    0      233.5     0.0      0.0    0.0    0.0    0.0      0.0      0.0   -9.90      7.6      0.2     2      0.0      0.0   100      7.6     0.2      2
     1     8  1997    -9    0      233.4     0.0      0.0    0.0    0.0    0.0      0.0      0.0   -9.90      5.0      0.1     2      0.0      0.0   100      5.0     0.1      2
     2     8  1997    -9    0      233.2     0.0      0.0    0.0    0.0    0.0      0.0      0.0   -9.90      7.3      0.2     2      0.0      0.0   100      7.3     0.2      2
     3     8  1997    -9    0      233.0     0.0      0.0    0.0    0.0    0.0      0.0      0.0   -9.90      6.2      0.1     2      0.0      0.0   100      6.2     0.1      2
     4     8  1997    -9    0      232.9     0.0      0.0    0.0    0.0    0.0      0.0      0.0   -9.90      6.6      0.1     2      0.0      0.0   100      6.6     0.1      2
     5     8  1997    -9    0      232.8     0.0      0.0    0.0    0.0    0.0      0.0      0.0   -9.90      5.4      0.1     2      0.0      0.0   100      5.4     0.1      2
     6     8  1997    -9    0      232.7     0.8      0.0    0.0    0.8    0.0      0.0      0.0   -9.90      3.4      0.9    25      0.0      0.0   100      3.4     0.9     25
     7     8  1997    -9    0      232.6     0.0      0.0    0.0    0.0    0.0      0.0      0.0   -9.90      4.3      0.1     2      0.0      0.0   100      4.3     0.1      2
     8     8  1997    -9    0      232.5     0.2      0.0    0.0    0.2    0.0      0.0      0.0   -9.90      6.2      0.3     5      0.0      0.0   100      6.2     0.3      5
     9     8  1997    -9    0      232.4     0.0      0.0    0.0    0.0    0.0      0.0      0.0   -9.90      6.3      0.1     2      0.0      0.0   100      6.3     0.1      2
    10     8  1997    -9    0      232.2     0.0      0.0    0.0    0.0    0.0      0.0      0.0   -9.90      8.1      0.2     2      0.0      0.0   100      8.1     0.2      2
    11     8  1997    -9    0      232.1     0.0      0.0    0.0    0.0    0.0      0.0      0.0   -9.90      6.7      0.1     2      0.0      0.0   100      6.7     0.1      2
    12     8  1997    -9    0      231.9     0.0      0.0    0.0    0.0    0.0      0.0      0.0   -9.90      7.5      0.1     2      0.0      0.0   100      7.5     0.1      2
    13     8  1997    -9    0      231.8     0.0      0.0    0.0    0.0    0.0      0.0      0.0   -9.90      7.7      0.1     2      0.0      0.0   100      7.7     0.1      2
    14     8  1997    -9    0      231.6     0.0      0.0    0.0    0.0    0.0      0.0      0.0   -9.90      7.4      0.1     2      0.0      0.0   100      7.4     0.1      2
    15     8  1997    -9    0      231.5     0.0      0.0    0.0    0.0    0.0      0.0      0.0   -9.90      7.0      0.1     2      0.0      0.0   100      7.0     0.1      2
    16     8  1997    -9    0      231.4     0.0      0.0    0.0    0.0    0.0      0.0      0.0   -9.90      5.8      0.1     2      0.0      0.0   100      5.8     0.1      2
    17     8  1997    -9    0      231.3     0.0      0.0    0.0    0.0    0.0      0.0      0.0   -9.90      5.8      0.1     2      0.0      0.0   100      5.8     0.1      2
    18     8  1997    -9    0      231.3     1.2      0.0    0.0    1.2    0.0      0.0      0.0   -9.90      3.7      1.2    33      0.0      0.0   100      3.7     1.2     33
    19     8  1997    -9    0      234.5     7.2      0.0    0.0    7.2    0.0      0.0      0.0   -9.90      4.0      4.0   100      0.0      0.0   100      4.0     4.0    100
    20     8  1997    -9    0      234.4     2.2      0.0    0.0    2.2    0.0      0.0      0.0   -9.90      4.7      2.3    48      0.0      0.0   100      4.7     2.3     48
    21     8  1997    -9    0      234.3     0.0      0.0    0.0    0.0    0.0      0.0      0.0   -9.90      5.0      0.1     3      0.0      0.0   100      5.0     0.1      3
    22     8  1997    -9    0      234.2     0.4      0.0    0.0    0.4    0.0      0.0      0.0   -9.90      3.9      0.5    13      0.0      0.0   100      3.9     0.5     13

Legend

DAP          : Days after planting
Stage        : 0: before/after planting
Stage        : 1: emergence or transplant recovery
Stage        : 2: vegetative stage
Stage        : 3: flowering
Stage        : 4: yield formation and ripening
WCTot        : Water content in total soil profile
Rain         : Rainfall
Irri         : Water applied by irrigation
Surf         : Stored water on soil surface between bunds
Infilt       : Infiltrated water in soil profile
RO           : Surface runoff
Drain        : Water drained out of the soil profile
CR           : Water moved upward by capillary rise
Zgwt         : Depth of the groundwater table (-9.90 if absent)
Ex           : Maximum soil evaporation
E            : Soil evaporation
E/Ex         : Relative soil evaporation (100 E/Ex)
Trx          : Maximum crop transpiration
Tr           : Crop transpiration
Tr/Trx       : Relative crop transpiration (100 Tr/Trx)
ETx          : Maximum evapotranspiration
ET           : Evapotranspiration
ET/ETx       : Relative evapotranspriation (100 ET/ETx)
