AquaCrop 4.0 (June 2012) - Output created on (date) : 21/03/2014   at (time) : 15:57:24
Crop development and production

   Day Month  Year   DAP Stage    GD       Z     StExp  StSto  StSen StSalt   CC    Kc(Tr)     Trx      Tr   Tr/Trx   WP    StBio  Biomass    HI  YieldPart  Brelative   WPet
                                °C-day     m       %      %      %      %      %      -        mm       mm     %     g/m2     %    ton/ha      %    ton/ha        %      kg/m3
    22     9  1996    -9    0    16.0    0.00     -9     -9     -9    100     0.0    0.00      0.0      0.0   100     0.0     0     0.000    -9.9    0.000      -9      0.00
    23     9  1996    -9    0    13.9    0.00     -9     -9     -9      0     0.0    0.00      0.0      0.0   100     0.0     0     0.000    -9.9    0.000      -9      0.00
    24     9  1996    -9    0    13.8    0.00     -9     -9     -9      0     0.0    0.00      0.0      0.0   100     0.0     0     0.000    -9.9    0.000      -9      0.00
    25     9  1996    -9    0    12.2    0.00     -9     -9     -9      0     0.0    0.00      0.0      0.0   100     0.0     0     0.000    -9.9    0.000      -9      0.00
    26     9  1996    -9    0    12.8    0.00     -9     -9     -9      0     0.0    0.00      0.0      0.0   100     0.0     0     0.000    -9.9    0.000      -9      0.00
    27     9  1996    -9    0    12.9    0.00     -9     -9     -9      0     0.0    0.00      0.0      0.0   100     0.0     0     0.000    -9.9    0.000      -9      0.00
    28     9  1996    -9    0    13.6    0.00     -9     -9     -9      0     0.0    0.00      0.0      0.0   100     0.0     0     0.000    -9.9    0.000      -9      0.00
    29     9  1996    -9    0    15.3    0.00     -9     -9     -9      0     0.0    0.00      0.0      0.0   100     0.0     0     0.000    -9.9    0.000      -9      0.00
    30     9  1996    -9    0    14.7    0.00     -9     -9     -9      0     0.0    0.00      0.0      0.0   100     0.0     0     0.000    -9.9    0.000      -9      0.00
     1    10  1996    -9    0    13.7    0.00     -9     -9     -9      0     0.0    0.00      0.0      0.0   100     0.0     0     0.000    -9.9    0.000      -9      0.00
     2    10  1996    -9    0    12.3    0.00     -9     -9     -9      0     0.0    0.00      0.0      0.0   100     0.0     0     0.000    -9.9    0.000      -9      0.00
     3    10  1996    -9    0    12.2    0.00     -9     -9     -9      0     0.0    0.00      0.0      0.0   100     0.0     0     0.000    -9.9    0.000      -9      0.00
     4    10  1996    -9    0    11.3    0.00     -9     -9     -9      0     0.0    0.00      0.0      0.0   100     0.0     0     0.000    -9.9    0.000      -9      0.00
     5    10  1996    -9    0    14.7    0.00     -9     -9     -9      0     0.0    0.00      0.0      0.0   100     0.0     0     0.000    -9.9    0.000      -9      0.00
     6    10  1996    -9    0    14.1    0.00     -9     -9     -9      0     0.0    0.00      0.0      0.0   100     0.0     0     0.000    -9.9    0.000      -9      0.00
     7    10  1996    -9    0    12.0    0.00     -9     -9     -9      0     0.0    0.00      0.0      0.0   100     0.0     0     0.000    -9.9    0.000      -9      0.00
     8    10  1996    -9    0    14.0    0.00     -9     -9     -9      0     0.0    0.00      0.0      0.0   100     0.0     0     0.000    -9.9    0.000      -9      0.00
     9    10  1996    -9    0    14.4    0.00     -9     -9     -9      0     0.0    0.00      0.0      0.0   100     0.0     0     0.000    -9.9    0.000      -9      0.00
    10    10  1996    -9    0    14.2    0.00     -9     -9     -9      0     0.0    0.00      0.0      0.0   100     0.0     0     0.000    -9.9    0.000      -9      0.00
    11    10  1996    -9    0    14.0    0.00     -9     -9     -9      0     0.0    0.00      0.0      0.0   100     0.0     0     0.000    -9.9    0.000      -9      0.00
    12    10  1996    -9    0    12.5    0.00     -9     -9     -9      0     0.0    0.00      0.0      0.0   100     0.0     0     0.000    -9.9    0.000      -9      0.00
    13    10  1996    -9    0    12.1    0.00     -9     -9     -9      0     0.0    0.00      0.0      0.0   100     0.0     0     0.000    -9.9    0.000      -9      0.00
    14    10  1996    -9    0    14.1    0.00     -9     -9     -9      0     0.0    0.00      0.0      0.0   100     0.0     0     0.000    -9.9    0.000      -9      0.00
    15    10  1996    -9    0    15.3    0.00     -9     -9     -9      0     0.0    0.00      0.0      0.0   100     0.0     0     0.000    -9.9    0.000      -9      0.00
    16    10  1996    -9    0    12.3    0.00     -9     -9     -9      0     0.0    0.00      0.0      0.0   100     0.0     0     0.000    -9.9    0.000      -9      0.00
    17    10  1996    -9    0    10.4    0.00     -9     -9     -9      0     0.0    0.00      0.0      0.0   100     0.0     0     0.000    -9.9    0.000      -9      0.00
    18    10  1996    -9    0     8.8    0.00     -9     -9     -9      0     0.0    0.00      0.0      0.0   100     0.0     0     0.000    -9.9    0.000      -9      0.00
    19    10  1996    -9    0     7.7    0.00     -9     -9     -9      0     0.0    0.00      0.0      0.0   100     0.0     0     0.000    -9.9    0.000      -9      0.00
    20    10  1996    -9    0    10.9    0.00     -9     -9     -9      0     0.0    0.00      0.0      0.0   100     0.0     0     0.000    -9.9    0.000      -9      0.00
    21    10  1996    -9    0     9.8    0.00     -9     -9     -9      0     0.0    0.00      0.0      0.0   100     0.0     0     0.000    -9.9    0.000      -9      0.00
    22    10  1996    -9    0    12.3    0.00     -9     -9     -9      0     0.0    0.00      0.0      0.0   100     0.0     0     0.000    -9.9    0.000      -9      0.00
    23    10  1996    -9    0    11.9    0.00     -9     -9     -9      0     0.0    0.00      0.0      0.0   100     0.0     0     0.000    -9.9    0.000      -9      0.00
    24    10  1996    -9    0    10.2    0.00     -9     -9     -9      0     0.0    0.00      0.0      0.0   100     0.0     0     0.000    -9.9    0.000      -9      0.00
    25    10  1996    -9    0     9.1    0.00     -9     -9     -9      0     0.0    0.00      0.0      0.0   100     0.0     0     0.000    -9.9    0.000      -9      0.00
    26    10  1996    -9    0     8.6    0.00     -9     -9     -9      0     0.0    0.00      0.0      0.0   100     0.0     0     0.000    -9.9    0.000      -9      0.00
    27    10  1996    -9    0     9.0    0.00     -9     -9     -9      0     0.0    0.00      0.0      0.0   100     0.0     0     0.000    -9.9    0.000      -9      0.00
    28    10  1996    -9    0     8.5    0.00     -9     -9     -9      0     0.0    0.00      0.0      0.0   100     0.0     0     0.000    -9.9    0.000      -9      0.00
    29    10  1996    -9    0    10.4    0.00     -9     -9     -9      0     0.0    0.00      0.0      0.0   100     0.0     0     0.000    -9.9    0.000      -9      0.00
    30    10  1996    -9    0    12.1    0.00     -9     -9     -9      0     0.0    0.00      0.0      0.0   100     0.0     0     0.000    -9.9    0.000      -9      0.00
    31    10  1996    -9    0    10.3    0.00     -9     -9     -9      0     0.0    0.00      0.0      0.0   100     0.0     0     0.000    -9.9    0.000      -9      0.00
     1    11  1996    -9    0     8.6    0.00     -9     -9     -9      0     0.0    0.00      0.0      0.0   100     0.0     0     0.000    -9.9    0.000      -9      0.00
     2    11  1996    -9    0    11.4    0.00     -9     -9     -9      0     0.0    0.00      0.0      0.0   100     0.0     0     0.000    -9.9    0.000      -9      0.00
     3    11  1996    -9    0    10.8    0.00     -9     -9     -9      0     0.0    0.00      0.0      0.0   100     0.0     0     0.000    -9.9    0.000      -9      0.00
     4    11  1996    -9    0     9.0    0.00     -9     -9     -9      0     0.0    0.00      0.0      0.0   100     0.0     0     0.000    -9.9    0.000      -9      0.00
     5    11  1996    -9    0    11.3    0.00     -9     -9     -9      0     0.0    0.00      0.0      0.0   100     0.0     0     0.000    -9.9    0.000      -9      0.00
     6    11  1996    -9    0    11.4    0.00     -9     -9     -9      0     0.0    0.00      0.0      0.0   100     0.0     0     0.000    -9.9    0.000      -9      0.00
     7    11  1996    -9    0    10.5    0.00     -9     -9     -9      0     0.0    0.00      0.0      0.0   100     0.0     0     0.000    -9.9    0.000      -9      0.00
     8    11  1996    -9    0    10.4    0.00     -9     -9     -9      0     0.0    0.00      0.0      0.0   100     0.0     0     0.000    -9.9    0.000      -9      0.00
     9    11  1996    -9    0     9.9    0.00     -9     -9     -9      0     0.0    0.00      0.0      0.0   100     0.0     0     0.000    -9.9    0.000      -9      0.00
    10    11  1996    -9    0     9.8    0.00     -9     -9     -9      0     0.0    0.00      0.0      0.0   100     0.0     0     0.000    -9.9    0.000      -9      0.00
    11    11  1996    -9    0    13.6    0.00     -9     -9     -9      0     0.0    0.00      0.0      0.0   100     0.0     0     0.000    -9.9    0.000      -9      0.00
    12    11  1996    -9    0    15.3    0.00     -9     -9     -9      0     0.0    0.00      0.0      0.0   100     0.0     0     0.000    -9.9    0.000      -9      0.00
    13    11  1996    -9    0    15.1    0.00     -9     -9     -9      0     0.0    0.00      0.0      0.0   100     0.0     0     0.000    -9.9    0.000      -9      0.00
    14    11  1996    -9    0    15.4    0.00     -9     -9     -9      0     0.0    0.00      0.0      0.0   100     0.0     0     0.000    -9.9    0.000      -9      0.00
    15    11  1996    -9    0    15.2    0.00     -9     -9     -9      0     0.0    0.00      0.0      0.0   100     0.0     0     0.000    -9.9    0.000      -9      0.00
    16    11  1996    -9    0    13.1    0.00     -9     -9     -9      0     0.0    0.00      0.0      0.0   100     0.0     0     0.000    -9.9    0.000      -9      0.00
    17    11  1996    -9    0    12.4    0.00     -9     -9     -9      0     0.0    0.00      0.0      0.0   100     0.0     0     0.000    -9.9    0.000      -9      0.00
    18    11  1996    -9    0    10.0    0.00     -9     -9     -9      0     0.0    0.00      0.0      0.0   100     0.0     0     0.000    -9.9    0.000      -9      0.00
    19    11  1996    -9    0     7.3    0.00     -9     -9     -9      0     0.0    0.00      0.0      0.0   100     0.0     0     0.000    -9.9    0.000      -9      0.00
    20    11  1996    -9    0     8.1    0.00     -9     -9     -9      0     0.0    0.00      0.0      0.0   100     0.0     0     0.000    -9.9    0.000      -9      0.00
    21    11  1996    -9    0     5.4    0.00     -9     -9     -9      0     0.0    0.00      0.0      0.0   100     0.0     0     0.000    -9.9    0.000      -9      0.00
    22    11  1996    -9    0     6.9    0.00     -9     -9     -9      0     0.0    0.00      0.0      0.0   100     0.0     0     0.000    -9.9    0.000      -9      0.00
    23    11  1996    -9    0     3.5    0.00     -9     -9     -9      0     0.0    0.00      0.0      0.0   100     0.0     0     0.000    -9.9    0.000      -9      0.00
    24    11  1996    -9    0     3.5    0.00     -9     -9     -9      0     0.0    0.00      0.0      0.0   100     0.0     0     0.000    -9.9    0.000      -9      0.00
    25    11  1996    -9    0     2.8    0.00     -9     -9     -9      0     0.0    0.00      0.0      0.0   100     0.0     0     0.000    -9.9    0.000      -9      0.00
    26    11  1996    -9    0     5.2    0.00     -9     -9     -9      0     0.0    0.00      0.0      0.0   100     0.0     0     0.000    -9.9    0.000      -9      0.00
    27    11  1996    -9    0     5.0    0.00     -9     -9     -9      0     0.0    0.00      0.0      0.0   100     0.0     0     0.000    -9.9    0.000      -9      0.00
    28    11  1996    -9    0     7.1    0.00     -9     -9     -9      0     0.0    0.00      0.0      0.0   100     0.0     0     0.000    -9.9    0.000      -9      0.00
    29    11  1996    -9    0     2.9    0.00     -9     -9     -9      0     0.0    0.00      0.0      0.0   100     0.0     0     0.000    -9.9    0.000      -9      0.00
    30    11  1996    -9    0     3.0    0.00     -9     -9     -9      0     0.0    0.00      0.0      0.0   100     0.0     0     0.000    -9.9    0.000      -9      0.00
     1    12  1996    -9    0     3.7    0.00     -9     -9     -9      0     0.0    0.00      0.0      0.0   100     0.0     0     0.000    -9.9    0.000      -9      0.00
     2    12  1996    -9    0     4.1    0.00     -9     -9     -9      0     0.0    0.00      0.0      0.0   100     0.0     0     0.000    -9.9    0.000      -9      0.00
     3    12  1996    -9    0     3.5    0.00     -9     -9     -9      0     0.0    0.00      0.0      0.0   100     0.0     0     0.000    -9.9    0.000      -9      0.00
     4    12  1996    -9    0     3.8    0.00     -9     -9     -9      0     0.0    0.00      0.0      0.0   100     0.0     0     0.000    -9.9    0.000      -9      0.00
     5    12  1996     1    1     4.0    0.30     -9     -9     -9      0     0.0    0.00      0.0      0.0   100    14.7     0     0.000    -9.9    0.000      -9      0.00
     6    12  1996     2    1     3.1    0.30     -9     -9     -9      0     0.0    0.00      0.0      0.0   100    14.7     0     0.000    -9.9    0.000      -9      0.00
     7    12  1996     3    1     7.1    0.30     -9     -9     -9      0     0.0    0.00      0.0      0.0   100    14.7     0     0.000    -9.9    0.000      -9      0.00
     8    12  1996     4    1     5.9    0.30     -9     -9     -9      0     0.0    0.00      0.0      0.0   100    14.7     0     0.000    -9.9    0.000      -9      0.00
     9    12  1996     5    1     6.2    0.30     -9     -9     -9      0     0.0    0.00      0.0      0.0   100    14.7     0     0.000    -9.9    0.000      -9      0.00
    10    12  1996     6    1     8.1    0.30     -9     -9     -9      0     0.0    0.00      0.0      0.0   100    14.7     0     0.000    -9.9    0.000      -9      0.00
    11    12  1996     7    1     6.3    0.30     -9     -9     -9      0     0.0    0.00      0.0      0.0   100    14.7     0     0.000    -9.9    0.000      -9      0.00
    12    12  1996     8    1     5.5    0.30     -9     -9     -9      0     0.0    0.00      0.0      0.0   100    14.7     0     0.000    -9.9    0.000      -9      0.00
    13    12  1996     9    1     7.8    0.30     -9     -9     -9      0     0.0    0.00      0.0      0.0   100    14.7     0     0.000    -9.9    0.000      -9      0.00
    14    12  1996    10    1    11.6    0.30     -9     -9     -9      0     0.0    0.00      0.0      0.0   100    14.7     0     0.000    -9.9    0.000      -9      0.00
    15    12  1996    11    1     7.8    0.30     -9     -9     -9      0     0.0    0.00      0.0      0.0   100    14.7     0     0.000    -9.9    0.000      -9      0.00
    16    12  1996    12    1     6.3    0.30     -9     -9     -9      0     0.0    0.00      0.0      0.0   100    14.7     0     0.000    -9.9    0.000      -9      0.00
    17    12  1996    13    1     4.3    0.30     -9     -9     -9      0     0.0    0.00      0.0      0.0   100    14.7     0     0.000    -9.9    0.000      -9      0.00
    18    12  1996    14    1     6.3    0.30     -9     -9     -9      0     0.0    0.00      0.0      0.0   100    14.7     0     0.000    -9.9    0.000      -9      0.00
    19    12  1996    15    1     4.6    0.32     -9     -9     -9      0     0.0    0.00      0.0      0.0   100    14.7     0     0.000    -9.9    0.000      -9      0.00
    20    12  1996    16    1     9.3    0.35     -9     -9     -9      0     0.0    0.00      0.0      0.0   100    14.7     0     0.000    -9.9    0.000      -9      0.00
    21    12  1996    17    1    10.7    0.39     -9     -9     -9      0     0.0    0.00      0.0      0.0   100    14.7     0     0.000    -9.9    0.000      -9      0.00
    22    12  1996    18    1    10.2    0.42     -9     -9     -9      0     0.0    0.00      0.0      0.0   100    14.7     0     0.000    -9.9    0.000      -9      0.00
    23    12  1996    19    1    10.7    0.44     -9     -9     -9      0     0.0    0.00      0.0      0.0   100    14.7     0     0.000    -9.9    0.000      -9      0.00
    24    12  1996    20    1     9.8    0.47     -9     -9     -9      0     0.0    0.00      0.0      0.0   100    14.7     0     0.000    -9.9    0.000      -9      0.00
    25    12  1996    21    1     6.7    0.48     -9      0      0      0     7.0    0.13      0.1      0.1   100    14.7    56     0.008    -9.9    0.000     100      0.00
    26    12  1996    22    2     0.0    0.48      0      0      0      0     7.0    0.13      0.2      0.2   100    14.7   100     0.008    -9.9    0.000     100      0.00
    27    12  1996    23    2     0.0    0.48      0      0      0      0     7.0    0.13      0.1      0.1   100    14.7   100     0.008    -9.9    0.000     100      0.00
    28    12  1996    24    2     0.0    0.48      0      0      0      0     7.0    0.13      0.1      0.1   100    14.7   100     0.008    -9.9    0.000     100      0.00
    29    12  1996    25    2     0.0    0.48      0      0      0      0     7.0    0.13      0.1      0.1   100    14.7   100     0.008    -9.9    0.000     100      0.00
    30    12  1996    26    2     0.0    0.48      0      0      0      0     7.0    0.13      0.1      0.1   100    14.7   100     0.008    -9.9    0.000     100      0.00
    31    12  1996    27    2     0.0    0.48      0      0      0      0     7.0    0.13      0.1      0.1   100    14.7   100     0.008    -9.9    0.000     100      0.00
     1     1  1997    28    2     8.1    0.50      0      0      0      0     7.3    0.13      0.1      0.1   100    14.7    36     0.021    -9.9    0.000     100      0.00
     2     1  1997    29    2     9.6    0.52      0      0      0      0     7.6    0.14      0.1      0.1   100    14.7    20     0.037    -9.9    0.000     100      0.00
     3     1  1997    30    2    10.8    0.55      0      0      0      0     8.0    0.15      0.1      0.1   100    14.7    12     0.056    -9.9    0.000     100      0.00
     4     1  1997    31    2     6.7    0.56      0      0      0      0     8.3    0.15      0.1      0.1   100    14.7    55     0.066    -9.9    0.000     100      0.00
     5     1  1997    32    2     5.0    0.57      0      0      0      0     8.5    0.15      0.1      0.1   100    14.7    77     0.071    -9.9    0.000     100      0.00
     6     1  1997    33    2     5.0    0.58      0      0      0      0     8.7    0.16      0.1      0.1   100    14.7    77     0.077    -9.9    0.000     100      0.00
     7     1  1997    34    2     6.0    0.59      0      0      0      0     9.0    0.16      0.1      0.1   100    14.7    65     0.085    -9.9    0.000     100      0.00
     8     1  1997    35    2     6.5    0.61      0      0      0      0     9.3    0.17      0.1      0.1   100    14.7    59     0.095    -9.9    0.000     100      0.00
     9     1  1997    36    2     7.5    0.62      0      0      0      0     9.7    0.17      0.1      0.1   100    14.7    44     0.109    -9.9    0.000     100      0.00
    10     1  1997    37    2     3.9    0.63      0      0      0      0     9.8    0.18      0.1      0.1   100    14.7    87     0.113    -9.9    0.000     100      0.00
    11     1  1997    38    2     6.1    0.64      0      0      0      0    10.2    0.18      0.2      0.2   100    14.7    63     0.122    -9.9    0.000     100      0.00
    12     1  1997    39    2     6.3    0.65      0      0      0      0    10.5    0.19      0.3      0.3   100    14.7    61     0.133    -9.9    0.000     100      0.00
    13     1  1997    40    2     6.2    0.66      0      0      0      0    10.8    0.19      0.3      0.3   100    14.7    62     0.144    -9.9    0.000     100      0.00
    14     1  1997    41    2     6.5    0.68      0      0      0      0    11.2    0.20      0.3      0.3   100    14.7    57     0.156    -9.9    0.000     100      0.00
    15     1  1997    42    2     6.7    0.69      0      0      0      0    11.5    0.20      0.2      0.2   100    14.7    55     0.170    -9.9    0.000     100      0.00
    16     1  1997    43    2     4.2    0.70      0      0      0      0    11.8    0.21      0.1      0.1   100    14.7    84     0.175    -9.9    0.000     100      0.00
    17     1  1997    44    2     2.8    0.70      0      0      0      0    12.0    0.21      0.1      0.1   100    14.7    93     0.177    -9.9    0.000     100      0.00
    18     1  1997    45    2     0.3    0.70      0      0      0      0    12.0    0.21      0.1      0.1   100    14.7   100     0.177    -9.9    0.000     100      0.00
    19     1  1997    46    2     3.1    0.71      0      0      0      0    12.2    0.21      0.1      0.1   100    14.7    91     0.180    -9.9    0.000     100      0.00
    20     1  1997    47    2     9.4    0.72      0      0      0      0    12.7    0.22      0.2      0.2   100    14.7    22     0.206    -9.9    0.000     100      0.00
    21     1  1997    48    2    10.1    0.74      0      0      0      0    13.4    0.23      0.3      0.3   100    14.7    16     0.235    -9.9    0.000     100      0.00
    22     1  1997    49    2     9.3    0.76      0      0      0      0    14.0    0.24      0.3      0.3   100    14.7    22     0.263    -9.9    0.000     100      0.00
    23     1  1997    50    2     9.2    0.77      0      0      0      0    14.7    0.26      0.3      0.3   100    14.7    24     0.292    -9.9    0.000     100      0.00
    24     1  1997    51    2     7.7    0.78      0      0      0      0    15.3    0.26      0.2      0.2   100    14.7    42     0.314    -9.9    0.000     100      0.00
    25     1  1997    52    2     6.8    0.79      0      0      0      0    15.8    0.27      0.2      0.2   100    14.7    54     0.333    -9.9    0.000     100      0.00
    26     1  1997    53    2     6.7    0.81      0      0      0      0    16.3    0.28      0.3      0.3   100    14.7    56     0.351    -9.9    0.000     100      0.00
    27     1  1997    54    2     7.5    0.82      0      0      0      0    17.0    0.29      0.3      0.3   100    14.7    45     0.375    -9.9    0.000     100      0.00
    28     1  1997    55    2     8.0    0.83      0      0      0      0    17.6    0.30      0.3      0.3   100    14.7    38     0.402    -9.9    0.000     100      0.00
    29     1  1997    56    2     8.0    0.84      0      0      0      0    18.4    0.31      0.5      0.5   100    14.7    38     0.431    -9.9    0.000     100      0.00
    30     1  1997    57    2     5.2    0.85      0      0      0      0    18.8    0.32      0.4      0.4   100    14.7    75     0.443    -9.9    0.000     100      0.00
    31     1  1997    58    2     3.9    0.86      0      0      0      0    19.2    0.33      0.5      0.5   100    14.7    86     0.449    -9.9    0.000     100      0.00
     1     2  1997    59    2     5.5    0.86      0      0      0      0    19.7    0.33      0.4      0.4   100    14.7    71     0.464    -9.9    0.000     100      0.00
     2     2  1997    60    2     4.1    0.87      0      0      0      0    20.2    0.34      0.4      0.4   100    14.7    84     0.471    -9.9    0.000     100      0.00
     3     2  1997    61    2     4.2    0.88      0      0      0      0    20.6    0.35      0.4      0.4   100    14.7    84     0.479    -9.9    0.000     100      0.00
     4     2  1997    62    2     3.4    0.88      0      0      0      0    20.9    0.35      0.2      0.2   100    14.7    89     0.485    -9.9    0.000     100      0.00
     5     2  1997    63    2     4.7    0.89      0      0      0      0    21.4    0.36      0.1      0.1   100    14.7    80     0.496    -9.9    0.000     100      0.00
     6     2  1997    64    2     6.7    0.90      0      0      0      0    22.2    0.37      0.4      0.4   100    14.7    55     0.520    -9.9    0.000     100      0.00
     7     2  1997    65    2     6.5    0.91      0      0      0      0    22.9    0.38      0.8      0.8   100    14.7    59     0.543    -9.9    0.000     100      0.00
     8     2  1997    66    2     5.6    0.92      0      0      0      0    23.5    0.39      0.7      0.7   100    14.7    70     0.561    -9.9    0.000     100      0.00
     9     2  1997    67    2     5.5    0.93      0      0      0      0    24.2    0.40      0.6      0.6   100    14.7    71     0.578    -9.9    0.000     100      0.00
    10     2  1997    68    2     6.5    0.94      0      0      0      0    25.0    0.41      0.5      0.5   100    14.7    57     0.603    -9.9    0.000     100      0.00
    11     2  1997    69    2     6.7    0.94      0      0      0      0    25.9    0.42      0.5      0.5   100    14.7    55     0.631    -9.9    0.000     100      0.00
    12     2  1997    70    2     8.2    0.96      0      0      0      0    26.9    0.44      0.4      0.4   100    14.7    35     0.673    -9.9    0.000     100      0.00
    13     2  1997    71    2     8.1    0.97      0      0      0      0    28.1    0.45      0.5      0.5   100    14.7    36     0.716    -9.9    0.000     100      0.00
    14     2  1997    72    2     6.4    0.98      0      0      0      0    29.0    0.46      0.6      0.6   100    14.7    60     0.743    -9.9    0.000     100      0.00
    15     2  1997    73    2     8.0    0.99      0      0      0      0    30.1    0.48      0.2      0.2   100    14.7    38     0.787    -9.9    0.000     100      0.00
    16     2  1997    74    2     3.8    0.99      0      0      0      0    30.7    0.49      1.0      1.0   100    14.7    87     0.796    -9.9    0.000     100      0.00
    17     2  1997    75    2     3.6    1.00      0      0      0      0    31.3    0.49      0.9      0.9   100    14.7    88     0.805    -9.9    0.000     100      0.00
    18     2  1997    76    2     4.2    1.00      0      0      0      0    31.9    0.50      1.0      1.0   100    14.7    84     0.817    -9.9    0.000     100      0.00
    19     2  1997    77    2     6.0    1.01      0      0      0      0    32.9    0.52      1.0      1.0   100    14.7    65     0.843    -9.9    0.000     100      0.00
    20     2  1997    78    2     5.4    1.02      0      0      0      0    33.8    0.53      1.1      1.1   100    14.7    72     0.865    -9.9    0.000     100      0.00
    21     2  1997    79    2     6.2    1.03      0      0      0      0    34.9    0.54      0.8      0.8   100    14.7    63     0.894    -9.9    0.000     100      0.00
    22     2  1997    80    2     8.0    1.04      0      0      0      0    36.3    0.56      0.8      0.8   100    14.7    38     0.945    -9.9    0.000     100      0.00
    23     2  1997    81    2     6.5    1.05      0      0      0      0    37.5    0.57      0.9      0.9   100    14.7    59     0.980    -9.9    0.000     100      0.00
    24     2  1997    82    2     6.2    1.06      0      0      0      0    38.6    0.59      0.5      0.5   100    14.7    62     1.013    -9.9    0.000     100      0.00
    25     2  1997    83    2     9.8    1.07      0      0      0      0    40.6    0.61      0.5      0.5   100    14.7    18     1.086    -9.9    0.000     100      0.00
    26     2  1997    84    2     6.7    1.08      0      0      0      0    41.9    0.62      0.4      0.4   100    14.7    55     1.127    -9.9    0.000     100      0.00
    27     2  1997    85    2     6.7    1.09      0      0      0      0    43.4    0.64      1.2      1.2   100    14.7    55     1.170    -9.9    0.000     100      0.00
    28     2  1997    86    2     5.2    1.09      0      0      0      0    44.5    0.65      1.4      1.4   100    14.7    74     1.194    -9.9    0.000     100      0.00
     1     3  1997    87    2     0.0    1.09      0      0      0      0    44.5    0.65      1.6      1.6   100    14.7   100     1.194    -9.9    0.000     100      0.00
     2     3  1997    88    2     0.0    1.09      0      0      0      0    44.5    0.65      1.8      1.8   100    14.7   100     1.194    -9.9    0.000     100      0.00
     3     3  1997    89    2     8.7    1.11      0      0      0      0    46.5    0.67      2.0      2.0   100    14.7    29     1.265    -9.9    0.000     100      0.00
     4     3  1997    90    2    10.7    1.12      0      0      0      0    49.0    0.70      1.8      1.8   100    14.7    12     1.356    -9.9    0.000     100      0.00
     5     3  1997    91    2     9.4    1.13      0      0      0      0    51.1    0.72      1.2      1.2   100    14.7    21     1.440    -9.9    0.000     100      0.00
     6     3  1997    92    2     9.5    1.14      0      0      0      0    53.2    0.74      1.0      1.0   100    14.7    21     1.528    -9.9    0.000     100      0.00
     7     3  1997    93    2    12.5    1.16      0      0      0      0    55.7    0.77      2.4      2.4   100    14.7     5     1.636    -9.9    0.000     100      0.00
     8     3  1997    94    2    10.0    1.17      0      0      0      0    57.6    0.79      2.2      2.2   100    14.7    16     1.733    -9.9    0.000     100      0.00
     9     3  1997    95    2     8.5    1.18      0      0      0      0    59.2    0.80      2.2      2.2   100    14.7    32     1.814    -9.9    0.000     100      0.00
    10     3  1997    96    2     9.2    1.19      0      0      0      0    60.8    0.82      2.7      2.7   100    14.7    23     1.906    -9.9    0.000     100      0.00
    11     3  1997    97    2     8.0    1.20      0      0      0      0    62.2    0.83      2.1      2.1   100    14.7    38     1.982    -9.9    0.000     100      0.00
    12     3  1997    98    2     9.5    1.22      0      0      0      0    63.7    0.84      2.7      2.7   100    14.7    21     2.081    -9.9    0.000     100      0.00
    13     3  1997    99    2     7.8    1.23      0      0      0      0    64.9    0.85      2.5      2.5   100    14.7    39     2.157    -9.9    0.000     100      0.00
    14     3  1997   100    2     9.3    1.24      0      0      0      0    66.3    0.87      2.1      2.1   100    14.7    23     2.256    -9.9    0.000     100      0.00
    15     3  1997   101    2     9.5    1.25      0      0      0      0    67.6    0.88      2.2      2.2   100    14.7    21     2.359    -9.9    0.000     100      0.00
    16     3  1997   102    2    10.7    1.26      0      0      0      0    69.0    0.89      2.7      2.7   100    14.7    12     2.474    -9.9    0.000     100      0.00
    17     3  1997   103    2     9.5    1.27      0      0      0      0    70.2    0.90      2.3      2.3   100    14.7    20     2.580    -9.9    0.000     100      0.00
    18     3  1997   104    2    11.3    1.29      0      0      0      0    71.6    0.91      2.3      2.3   100    14.7     9     2.702    -9.9    0.000     100      0.00
    19     3  1997   105    2     9.2    1.30      0      0      0      0    72.7    0.92      2.2      2.2   100    14.7    23     2.806    -9.9    0.000     100      0.00
    20     3  1997   106    2     9.2    1.31      0      0      0      0    73.7    0.93      2.6      2.6   100    14.7    23     2.911    -9.9    0.000     100      0.00
    21     3  1997   107    2     5.9    1.32      0      0      0      0    74.3    0.93      2.5      2.5   100    14.7    66     2.958    -9.9    0.000     100      0.00
    22     3  1997   108    2     7.5    1.32      0      0      0      0    75.1    0.94      2.3      2.3   100    14.7    45     3.035    -9.9    0.000     100      0.00
    23     3  1997   109    2     7.5    1.33      0      0      0      0    75.8    0.95      1.7      1.7   100    14.7    45     3.112    -9.9    0.000     100      0.00
    24     3  1997   110    2     7.0    1.34      0      0      0      0    76.5    0.95      0.9      0.9   100    14.7    52     3.180    -9.9    0.000     100      0.00
    25     3  1997   111    2     8.3    1.35      0      0      0      0    77.2    0.96      2.2      2.2   100    14.7    34     3.273    -9.9    0.000     100      0.00
    26     3  1997   112    2     9.5    1.36      0      0      0      0    78.1    0.96      3.2      3.2   100    14.7    21     3.386    -9.9    0.000     100      0.00
    27     3  1997   113    2     9.3    1.37      0      0      0      0    78.8    0.97      2.9      2.9   100    14.7    22     3.497    -9.9    0.000     100      0.00
    28     3  1997   114    2     7.0    1.38      0      0      0      0    79.4    0.97      2.0      2.0   100    14.7    51     3.567    -9.9    0.000     100      0.00
    29     3  1997   115    2     5.5    1.39      0      0      0      0    79.8    0.98      3.2      3.2   100    14.7    71     3.609    -9.9    0.000     100      0.00
    30     3  1997   116    2     4.1    1.39      0      0      0      0    80.1    0.98      3.0      3.0   100    14.7    85     3.631    -9.9    0.000     100      0.00
    31     3  1997   117    2     4.5    1.40      0      0      0      0    80.5    0.98      3.6      3.6   100    14.7    81     3.658    -9.9    0.000     100      0.00
     1     4  1997   118    2     7.1    1.40      0      0      0      0    81.0    0.99      3.0      3.0   100    14.7    50     3.732    -9.9    0.000     100      0.00
     2     4  1997   119    2     6.6    1.41      0      0      0      0    81.4    0.99      2.3      2.3   100    14.7    57     3.795    -9.9    0.000     100      0.00
     3     4  1997   120    2    10.3    1.42      0      0      0      0    82.1    0.99      3.5      3.5   100    14.7    14     3.921    -9.9    0.000     100      0.00
     4     4  1997   121    2     9.7    1.43      0      0      0      0    82.7    1.00      2.8      2.8   100    14.7    19     4.040    -9.9    0.000     100      0.00
     5     4  1997   122    2     8.5    1.44      0      0      0      0    83.3    1.00      3.4      3.4   100    14.7    30     4.143    -9.9    0.000     100      0.00
     6     4  1997   123    2     8.9    1.45      0      0      0      0    83.8    1.01      1.8      1.8   100    14.7    27     4.252    -9.9    0.000     100      0.00
     7     4  1997   124    2     7.8    1.46      1      0      0      0    84.2    1.01      3.8      3.8   100    14.7    41     4.340    -9.9    0.000     100      0.00
     8     4  1997   125    2     4.7    1.47      1      0      0      0    84.5    1.01      3.6      3.6   100    14.7    80     4.371    -9.9    0.000     100      0.00
     9     4  1997   126    2     6.2    1.47      0      0      0      0    84.8    1.01      3.0      3.0   100    14.7    63     4.427    -9.9    0.000     100      0.00
    10     4  1997   127    2     7.5    1.48      1      0      0      0    85.2    1.02      3.3      3.3   100    14.7    44     4.511    -9.9    0.000     100      0.00
    11     4  1997   128    2     6.9    1.49      1      0      0      0    85.5    1.02      3.1      3.1   100    14.7    53     4.581    -9.9    0.000     100      0.00
    12     4  1997   129    2     8.0    1.50      1      0      0      0    85.9    1.02      2.9      2.9   100    14.7    37     4.676    -9.9    0.000     100      0.00
    13     4  1997   130    2     6.4    1.50      2      0      0      0    86.1    1.02      3.8      3.8   100    14.7    60     4.736    -9.9    0.000     100      0.00
    14     4  1997   131    2     6.7    1.50      1      0      0      0    86.4    1.03      2.7      2.7   100    14.7    55     4.804    -9.9    0.000     100      0.00
    15     4  1997   132    2     8.1    1.50      1      0      0      0    86.8    1.03      2.0      2.0   100    14.7    36     4.901    -9.9    0.000     100      0.00
    16     4  1997   133    2     8.1    1.50      3      0      0      0    87.1    1.03      3.8      3.8   100    14.7    36     4.998    -9.9    0.000     100      0.00
    17     4  1997   134    2     6.1    1.50      3      0      0      0    87.3    1.03      3.8      3.8   100    14.7    63     5.055    -9.9    0.000     100      0.00
    18     4  1997   135    2     6.5    1.50      4      0      0      0    87.6    1.03      3.9      3.9   100    14.7    58     5.119    -9.9    0.000     100      0.00
    19     4  1997   136    2     6.6    1.50      4      0      0      0    87.8    1.04      3.3      3.3   100    14.7    57     5.186    -9.9    0.000     100      0.00
    20     4  1997   137    2     7.6    1.50      1      0      0      0    88.1    1.04      0.4      0.4   100    14.7    43     5.273    -9.9    0.000     100      0.00
    21     4  1997   138    2     5.8    1.50      0      0      0      0    88.3    1.04      0.2      0.2   100    14.7    67     5.325    -9.9    0.000     100      0.00
    22     4  1997   139    2     2.8    1.50      0      0      0      0    88.4    1.04      0.7      0.7   100    14.7    93     5.335    -9.9    0.000     100      0.00
    23     4  1997   140    2     4.8    1.50      0      0      0      0    88.5    1.04      2.7      2.7   100    14.7    79     5.368    -9.9    0.000     100      0.00
    24     4  1997   141    2     7.4    1.50      0      0      0      0    88.8    1.04      3.9      3.9   100    14.7    46     5.451    -9.9    0.000     100      0.00
    25     4  1997   142    2     9.3    1.50      0      0      0      0    89.0    1.05      4.1      4.1   100    14.7    22     5.571    -9.9    0.000     100      0.00
    26     4  1997   143    2     7.5    1.50      0      0      0      0    89.3    1.05      2.8      2.8   100    14.7    44     5.657    -9.9    0.000     100      0.00
    27     4  1997   144    2    10.9    1.50      0      0      0      0    89.6    1.05      1.9      1.9   100    14.7    11     5.796    -9.9    0.000     100      0.00
    28     4  1997   145    2    11.3    1.50      0      0      0      0    89.9    1.05      2.9      2.9   100    14.7     9     5.937    -9.9    0.000     100      0.00
    29     4  1997   146    2     9.3    1.50      0      0      0      0    90.1    1.05      1.6      1.6   100    14.7    22     6.057    -9.9    0.000     100      0.00
    30     4  1997   147    2     8.6    1.50      0      0      0      0    90.3    1.05      2.3      2.3   100    14.7    30     6.166    -9.9    0.000     100      0.00
     1     5  1997   148    2    11.5    1.50      0      0      0      0    90.6    1.06      4.4      4.4   100    14.7     8     6.310    -9.9    0.000     100      0.00
     2     5  1997   149    2    13.0    1.50      0      0      0      0    90.9    1.06      4.9      4.9   100    14.7     4     6.460    -9.9    0.000     100      0.00
     3     5  1997   150    2    12.3    1.50      0      0      0      0    91.1    1.06      4.6      4.6   100    14.7     5     6.608    -9.9    0.000     100      0.00
     4     5  1997   151    2    12.4    1.50      0      0      0      0    91.3    1.06      4.6      4.6   100    14.7     5     6.757    -9.9    0.000     100      0.00
     5     5  1997   152    2    12.9    1.50      0      0      0      0    91.6    1.06      3.8      3.8   100    14.7     4     6.908    -9.9    0.000     100      0.00
     6     5  1997   153    2    14.3    1.50      0      0      0      0    91.8    1.07      5.0      5.0   100    14.7     0     7.065    -9.9    0.000     100      0.00
     7     5  1997   154    2    11.8    1.50      0      0      0      0    92.0    1.07      3.5      3.5   100    14.7     7     7.212    -9.9    0.000     100      0.00
     8     5  1997   155    2     7.0    1.50      0      0      0      0    92.1    1.07      1.1      1.1   100    14.7    52     7.288    -9.9    0.000     100      0.00
     9     5  1997   156    2     8.3    1.50      0      0      0      0    92.2    1.07      3.4      3.4   100    14.7    33     7.393    -9.9    0.000     100      0.00
    10     5  1997   157    2    10.3    1.50      0      0      0      0    92.3    1.07      4.2      4.2   100    14.7    15     7.528    -9.9    0.000     100      0.00
    11     5  1997   158    2    11.3    1.50      0      0      0      0    92.5    1.07      4.5      4.5   100    14.7     9     7.672    -9.9    0.000     100      0.00
    12     5  1997   159    2    15.3    1.50      0      0      0      0    92.6    1.07      4.7      4.7   100    14.7     0     7.830    -9.9    0.000     100      0.00
    13     5  1997   160    2    17.9    1.50      0      0      0      0    92.8    1.07      5.1      5.1   100    14.7     0     7.988    -9.9    0.000     100      0.00
    14     5  1997   161    2    18.8    1.50      1      0      0      0    93.0    1.07      5.2      5.2   100    14.7     0     8.146    -9.9    0.000     100      0.00
    15     5  1997   162    2    17.9    1.50      1      0      0      0    93.2    1.07      5.5      5.5   100    14.7     0     8.305    -9.9    0.000     100      0.00
    16     5  1997   163    2    18.4    1.50      1      0      0      0    93.3    1.08      4.0      4.0   100    14.7     0     8.463    -9.9    0.000     100      0.00
    17     5  1997   164    2    16.8    1.50      1      0      0      0    93.4    1.08      5.0      5.0   100    14.7     0     8.622    -9.9    0.000     100      0.00
    18     5  1997   165    2    15.3    1.50      1      0      0      0    93.5    1.08      4.4      4.4   100    14.7     0     8.781    -9.9    0.000     100      0.00
    19     5  1997   166    2    14.8    1.50      2      0      0      0    93.6    1.08      4.4      4.4   100    14.7     0     8.940    -9.9    0.000     100      0.00
    20     5  1997   167    3    16.4    1.50      2      0      0      0    93.6    1.08      4.2      4.2   100    14.7     0     9.099    -9.9    0.000     100      0.00
    21     5  1997   168    3    14.6    1.50      0      0      0      0    93.7    1.08      2.2      2.2   100    14.7     0     9.258    -9.9    0.000     100      0.00
    22     5  1997   169    3    13.8    1.50      1      0      0      0    93.7    1.08      3.9      3.9   100    14.7     2     9.413    -9.9    0.000     100      0.00
    23     5  1997   170    3    14.3    1.50      1      0      0      0    93.8    1.07      4.6      4.6   100    14.7     0     9.571     1.4    0.139     100      0.04
    24     5  1997   171    3    13.7    1.50      1      0      0      0    93.8    1.07      4.2      4.2   100    14.7     2     9.726     1.6    0.159     100      0.05
    25     5  1997   172    3    16.1    1.50      3      0      0      0    93.8    1.07      4.9      4.9   100    14.7     0     9.884     1.9    0.183     100      0.05
    26     5  1997   173    3    17.8    1.50     -9      0      0      0    93.0    1.06      4.5      4.5   100    14.7     0    10.040     2.1    0.210     100      0.06
    27     5  1997   174    3    16.3    1.50     -9      0      0      0    93.1    1.06      5.1      5.1   100    14.7     0    10.196     2.4    0.241     100      0.07
    28     5  1997   175    3    15.9    1.50     -9      0      0      0    93.2    1.06      5.7      5.7   100    14.7     0    10.352     2.7    0.276     100      0.07
    29     5  1997   176    3    14.0    1.50     -9      0      0      0    93.2    1.06      6.7      6.7   100    14.7     0    10.508     3.0    0.316     100      0.08
    30     5  1997   177    3    14.9    1.50     -9      0      0      0    93.2    1.06      5.2      5.2   100    14.7     0    10.663     3.4    0.361     100      0.09
    31     5  1997   178    3    15.3    1.50     -9      0      0      0    93.3    1.05      5.0      5.0   100    14.7     0    10.819     3.8    0.411     100      0.11
     1     6  1997   179    3    13.2    1.50     -9      0      0      0    93.3    1.05      3.0      3.0   100    14.7     3    10.969     4.3    0.469     100      0.12
     2     6  1997   180    3    16.7    1.50     -9      0      0      0    93.3    1.05      2.7      2.7   100    14.7     0    11.125     4.8    0.533     100      0.14
     3     6  1997   181    4    16.5    1.50     -9      0      0      0    93.4    1.05      3.5      3.5   100    14.7     0    11.280     5.4    0.606     100      0.15
     4     6  1997   182    4    15.8    1.50     -9      0      0      0    93.4    1.05      4.1      4.1   100    14.7     0    11.435     6.0    0.687     100      0.17
     5     6  1997   183    4    14.9    1.50     -9      0      0      0    93.4    1.05      1.2      1.2   100    14.7     0    11.590     6.7    0.777     100      0.19
     6     6  1997   184    4    14.9    1.50     -9      0      0      0    93.5    1.05      2.7      2.7   100    14.7     0    11.745     7.5    0.878     100      0.22
     7     6  1997   185    4    17.3    1.50     -9      0      0      0    93.5    1.05      4.5      4.5   100    14.7     0    11.900     8.3    0.989     100      0.24
     8     6  1997   186    4    18.1    1.50     -9      0      0      0    93.5    1.05      4.8      4.8   100    14.7     0    12.055     9.2    1.111     100      0.27
     9     6  1997   187    4    18.4    1.50     -9      0      0      0    93.5    1.05      5.1      5.1   100    14.7     0    12.209    10.1    1.238     100      0.30
    10     6  1997   188    4    19.9    1.50     -9      0      0      0    93.6    1.05      5.1      5.1   100    14.7     0    12.363    11.1    1.368     100      0.32
    11     6  1997   189    4    20.4    1.50     -9      0      0      0    93.6    1.05      4.6      4.6   100    14.7     0    12.518    12.0    1.501     100      0.35
    12     6  1997   190    4    19.6    1.50     -9      0      0      0    93.6    1.05      5.5      5.5   100    14.7     0    12.672    12.9    1.636     100      0.38
    13     6  1997   191    4    19.3    1.50     -9      0      0      0    93.6    1.04      4.1      4.1   100    14.7     0    12.826    13.8    1.775     100      0.41
    14     6  1997   192    4    20.0    1.50     -9      0      0      0    93.6    1.04      4.8      4.8   100    14.7     0    12.979    14.8    1.916     100      0.43
    15     6  1997   193    4    20.9    1.50     -9      0      0      0    93.5    1.04      6.3      6.3   100    14.7     0    13.133    15.7    2.060     100      0.46
    16     6  1997   194    4    20.5    1.50     -9      0      0      0    93.1    1.03      5.7      5.7   100    14.7     0    13.284    16.6    2.206     100      0.49
    17     6  1997   195    4    20.3    1.50     -9      0      0      0    92.6    1.02      5.4      5.4   100    14.7     0    13.435    17.5    2.355     100      0.51
    18     6  1997   196    4    20.9    1.50     -9      0      0      0    92.1    1.01      4.1      4.1   100    14.7     0    13.584    18.5    2.507     100      0.54
    19     6  1997   197    4    20.3    1.50     -9      0      0      0    91.6    1.00      4.3      4.3   100    14.7     0    13.732    19.4    2.661      99      0.57
    20     6  1997   198    4    18.2    1.50     -9      0      0      0    91.1    0.99      4.5      4.5   100    14.7     0    13.877    20.3    2.817      99      0.60
    21     6  1997   199    4    17.3    1.50     -9      0      0      0    90.5    0.98      3.9      3.9   100    14.7     0    14.021    21.2    2.976      99      0.62
    22     6  1997   200    4    20.1    1.50     -9      0      0      0    89.8    0.97      5.3      5.3   100    14.7     0    14.164    22.1    3.137      99      0.65
    23     6  1997   201    4    18.8    1.50     -9      0      0      0    89.1    0.95      4.5      4.5   100    14.7     0    14.304    23.1    3.301      99      0.68
    24     6  1997   202    4    16.9    1.50     -9      0      0      0    88.5    0.94      4.6      4.6   100    14.7     0    14.443    24.0    3.466      99      0.70
    25     6  1997   203    4    17.0    1.50     -9      0      0      0    87.7    0.92      4.5      4.5   100    14.7     0    14.579    24.9    3.633      99      0.73
    26     6  1997   204    4    17.4    1.50     -9      0      0      0    86.9    0.91      3.7      3.7   100    14.7     0    14.713    25.8    3.803      99      0.76
    27     6  1997   205    4    20.5    1.50     -9      0      0      0    85.9    0.89      5.1      5.1   100    14.7     0    14.845    26.8    3.974      99      0.79
    28     6  1997   206    4    21.1    1.50     -9      0      0      0    84.8    0.87      4.6      4.6   100    14.7     0    14.974    27.7    4.146      99      0.81
    29     6  1997   207    4    20.8    1.50     -9      0      0      0    83.5    0.85      4.2      4.2   100    14.7     0    15.099    28.6    4.321      99      0.84
    30     6  1997   208    4    16.7    1.50     -9      0      0      0    82.5    0.83      3.6      3.6   100    14.7     0    15.221    29.5    4.496      99      0.87
     1     7  1997   209    4    17.4    1.50     -9      0      0      0    81.3    0.81      3.7      3.7   100    14.7     0    15.341    30.5    4.673      99      0.90
     2     7  1997   210    4    17.3    1.50     -9      0      0      0    80.0    0.79      3.4      3.4   100    14.7     0    15.457    31.4    4.852      99      0.92
     3     7  1997   211    4    21.1    1.50     -9     12      0      0    78.3    0.76      4.6      4.1    88    14.7     0    15.556    32.3    5.025      99      0.95
     4     7  1997   212    4    21.1    1.50     -9      4      0      0    76.5    0.73      3.1      3.0    96    14.7     0    15.660    33.2    5.203      99      0.98
     5     7  1997   213    4    19.2    1.50     -9      6      0      0    74.7    0.70      3.0      2.8    94    14.7     0    15.757    34.1    5.380      99      1.00
     6     7  1997   214    4    17.4    1.50     -9     10      0      0    72.9    0.67      3.0      2.7    90    14.7     0    15.847    35.1    5.556      99      1.03
     7     7  1997   215    4    17.9    1.50     -9     18      0      0    70.9    0.64      3.3      2.7    82    14.7     0    15.924    36.0    5.728      99      1.06
     8     7  1997   216    4    17.9    1.50     -9     24      0      0    68.8    0.61      3.5      2.7    76    14.7     0    15.993    36.9    5.898      99      1.08
     9     7  1997   217    4    18.1    1.50     -9     25      0      0    66.5    0.58      3.1      2.3    75    14.7     0    16.057    37.8    6.068      99      1.11
    10     7  1997   218    4    18.1    1.50     -9     27      0      0    63.9    0.54      2.9      2.1    73    14.7     0    16.115    38.7    6.236      99      1.13
    11     7  1997   219    4    18.6    1.50     -9     29      0      0    61.2    0.50      2.7      1.9    71    14.7     0    16.168    39.6    6.402      99      1.16
    12     7  1997   220    4    19.6    1.50     -9     29      0      0    58.0    0.46      2.3      1.7    71    14.7     0    16.216    40.5    6.568      98      1.19
    13     7  1997   221    4    20.4    1.50     -9     32      0      0    54.4    0.41      2.2      1.5    68    14.7     0    16.257    41.4    6.731      98      1.21
    14     7  1997   222    4    19.4    1.50     -9     33      0      0    50.7    0.36      2.0      1.3    67    14.7     0    16.292    42.3    6.892      98      1.24
    15     7  1997   223    4    19.3    1.50     -9     34      0      0    46.7    0.31      1.7      1.1    66    14.7     0    16.323    43.2    7.052      98      1.26
    16     7  1997   224    4    21.9    1.50     -9     39      0      0    41.8    0.26      1.6      1.0    61    14.7     0    16.346    44.1    7.208      98      1.29
    17     7  1997   225    4    20.7    1.50     -9     35      0      0    36.7    0.20      1.0      0.7    65    14.7     0    16.365    45.0    7.363      98      1.32
    18     7  1997   226    4    21.3    1.50     -9     23      0      0    30.9    0.15      0.6      0.5    77    14.7     0    16.382    45.9    7.520      98      1.34
    19     7  1997   227    4    19.6    1.50     -9     29      0      0    25.2    0.10      0.5      0.4    71    14.7     0    16.393    46.8    7.673      98      1.36
    20     7  1997   228    4    19.2    1.50     -9     32      0      0    19.1    0.06      0.3      0.2    68    14.7     0    16.399    47.7    7.823      98      1.38
    21     7  1997   229    4    18.9    1.50     -9     31      0      0    12.6    0.03      0.1      0.1    69    14.7     0    16.402    47.7    7.825      98      1.38
    22     7  1997   230    4    20.9    1.50     -9     -9      0      0     0.0    0.00      0.0      0.0   100    14.7     0    16.402    47.7    7.825      98      1.38
    23     7  1997    -9    0    22.2    0.00     -9     -9      0      0     0.0    0.00      0.0      0.0   100    14.7     0    16.402    47.7    7.825      98      1.38
    24     7  1997    -9    0    22.2    0.00     -9     -9      0      0     0.0    0.00      0.0      0.0   100    14.7     0    16.402    47.7    7.825      98      1.38
    25     7  1997    -9    0    22.4    0.00     -9     -9      0      0     0.0    0.00      0.0      0.0   100    14.7     0    16.402    47.7    7.825      98      1.38
    26     7  1997    -9    0    22.1    0.00     -9     -9      0      0     0.0    0.00      0.0      0.0   100    14.7     0    16.402    47.7    7.825      98      1.38
    27     7  1997    -9    0    22.8    0.00     -9     -9      0      0     0.0    0.00      0.0      0.0   100    14.7     0    16.402    47.7    7.825      98      1.38
    28     7  1997    -9    0    22.5    0.00     -9     -9      0      0     0.0    0.00      0.0      0.0   100    14.7     0    16.402    47.7    7.825      98      1.38
    29     7  1997    -9    0    21.8    0.00     -9     -9      0      0     0.0    0.00      0.0      0.0   100    14.7     0    16.402    47.7    7.825      98      1.38
    30     7  1997    -9    0    22.2    0.00     -9     -9      0      0     0.0    0.00      0.0      0.0   100    14.7     0    16.402    47.7    7.825      98      1.38
    31     7  1997    -9    0    22.1    0.00     -9     -9      0      0     0.0    0.00      0.0      0.0   100    14.7     0    16.402    47.7    7.825      98      1.38
     1     8  1997    -9    0    21.4    0.00     -9     -9      0      0     0.0    0.00      0.0      0.0   100    14.7     0    16.402    47.7    7.825      98      1.38
     2     8  1997    -9    0    21.8    0.00     -9     -9      0      0     0.0    0.00      0.0      0.0   100    14.7     0    16.402    47.7    7.825      98      1.38
     3     8  1997    -9    0    22.2    0.00     -9     -9      0      0     0.0    0.00      0.0      0.0   100    14.7     0    16.402    47.7    7.825      98      1.38
     4     8  1997    -9    0    23.0    0.00     -9     -9      0      0     0.0    0.00      0.0      0.0   100    14.7     0    16.402    47.7    7.825      98      1.38
     5     8  1997    -9    0    21.6    0.00     -9     -9      0      0     0.0    0.00      0.0      0.0   100    14.7     0    16.402    47.7    7.825      98      1.38
     6     8  1997    -9    0    21.6    0.00     -9     -9      0      0     0.0    0.00      0.0      0.0   100    14.7     0    16.402    47.7    7.825      98      1.38
     7     8  1997    -9    0    21.4    0.00     -9     -9      0      0     0.0    0.00      0.0      0.0   100    14.7     0    16.402    47.7    7.825      98      1.38
     8     8  1997    -9    0    22.5    0.00     -9     -9      0      0     0.0    0.00      0.0      0.0   100    14.7     0    16.402    47.7    7.825      98      1.38
     9     8  1997    -9    0    21.6    0.00     -9     -9      0      0     0.0    0.00      0.0      0.0   100    14.7     0    16.402    47.7    7.825      98      1.38
    10     8  1997    -9    0    23.1    0.00     -9     -9      0      0     0.0    0.00      0.0      0.0   100    14.7     0    16.402    47.7    7.825      98      1.38
    11     8  1997    -9    0    22.4    0.00     -9     -9      0      0     0.0    0.00      0.0      0.0   100    14.7     0    16.402    47.7    7.825      98      1.38
    12     8  1997    -9    0    23.2    0.00     -9     -9      0      0     0.0    0.00      0.0      0.0   100    14.7     0    16.402    47.7    7.825      98      1.38
    13     8  1997    -9    0    22.6    0.00     -9     -9      0      0     0.0    0.00      0.0      0.0   100    14.7     0    16.402    47.7    7.825      98      1.38
    14     8  1997    -9    0    22.3    0.00     -9     -9      0      0     0.0    0.00      0.0      0.0   100    14.7     0    16.402    47.7    7.825      98      1.38
    15     8  1997    -9    0    22.5    0.00     -9     -9      0      0     0.0    0.00      0.0      0.0   100    14.7     0    16.402    47.7    7.825      98      1.38
    16     8  1997    -9    0    22.6    0.00     -9     -9      0      0     0.0    0.00      0.0      0.0   100    14.7     0    16.402    47.7    7.825      98      1.38
    17     8  1997    -9    0    20.6    0.00     -9     -9      0      0     0.0    0.00      0.0      0.0   100    14.7     0    16.402    47.7    7.825      98      1.38
    18     8  1997    -9    0    20.6    0.00     -9     -9      0      0     0.0    0.00      0.0      0.0   100    14.7     0    16.402    47.7    7.825      98      1.38
    19     8  1997    -9    0    20.2    0.00     -9     -9      0      0     0.0    0.00      0.0      0.0   100    14.7     0    16.402    47.7    7.825      98      1.38
    20     8  1997    -9    0    20.5    0.00     -9     -9      0      0     0.0    0.00      0.0      0.0   100    14.7     0    16.402    47.7    7.825      98      1.38
    21     8  1997    -9    0    20.6    0.00     -9     -9      0      0     0.0    0.00      0.0      0.0   100    14.7     0    16.402    47.7    7.825      98      1.38
    22     8  1997    -9    0    20.6    0.00     -9     -9      0      0     0.0    0.00      0.0      0.0   100    14.7     0    16.402    47.7    7.825      98      1.38

Legend

DAP          : Days after planting
Stage        : 0: before/after planting
Stage        : 1: emergence or transplant recovery
Stage        : 2: vegetative stage
Stage        : 3: flowering
Stage        : 4: yield formation and ripening
GD           : Growing degrees
Z            : Effective rooting depth
StExp        : Percent water stress reducing leaf expansion
StSto        : Percent water stress inducing stomatal closure
StSen        : Percent water stress triggering early canopy senescence
StSalt       : Percent salinity stress
CC           : Green Canopy Cover
Kc(Tr)       : Crop coefficient for transpiration
Trx          : Maximum crop transpiration
Tr           : Crop transpiration
Tr/Trx       : Relative crop transpiration (100 Tr/Trx)
WP           : Crop water productivity adjusted for CO2, soil fertility and products synthesized
StBio        : Percent temperature stress affecting biomass production
Biomass      : Cumulative biomass produced
HI           : Harvest Index adjusted for failure of pollination, inadequate photosynthesis and water stress
Yield Part   : Yield (HI x Biomass)
Brelative    : Relative biomass (Reference: no water, no soil fertility, no soil salinity stress)
WPet         : ET Water productivity for yield part (kg yield produced per m3 water evapotranspired)
