AquaCrop 4.0 (June 2012) - Output created on (date) : 21/03/2014   at (time) : 15:57:23
Soil Water Content at various depths (at center of compartments)

                 at depth (m):      0.05        0.15        0.25        0.35        0.45        0.55        0.67        0.82        0.97        1.13        1.27        1.45
   Day Month  Year   DAP Stage   WC1(vol%)   WC2(vol%)   WC3(vol%)   WC4(vol%)   WC5(vol%)   WC6(vol%)   WC7(vol%)   WC8(vol%)   WC9(vol%)  WC10(vol%)  WC11(vol%)  WC12(vol%)
    22     9  1996    -9    0       39.8        30.0        30.0        30.0        30.0        30.0        30.0        30.0        30.0        30.0        30.0        30.0
    23     9  1996    -9    0       47.1        37.7        31.3        30.5        30.3        30.2        30.1        30.1        30.1        30.0        30.0        30.0
    24     9  1996    -9    0       34.0        37.0        34.1        32.1        31.3        30.9        30.6        30.4        30.3        30.2        30.2        30.2
    25     9  1996    -9    0       34.9        33.1        32.4        32.1        31.6        31.2        31.0        30.7        30.6        30.5        30.4        30.3
    26     9  1996    -9    0       35.6        32.2        31.5        31.3        31.1        31.0        30.9        30.7        30.6        30.5        30.4        30.4
    27     9  1996    -9    0       28.4        32.3        31.2        30.9        30.7        30.7        30.6        30.5        30.5        30.4        30.4        30.3
    28     9  1996    -9    0       25.5        31.1        30.5        30.5        30.5        30.4        30.4        30.3        30.3        30.3        30.3        30.2
    29     9  1996    -9    0       23.3        30.5        30.2        30.2        30.2        30.2        30.2        30.2        30.2        30.2        30.2        30.2
    30     9  1996    -9    0       22.0        30.2        30.1        30.1        30.1        30.1        30.1        30.1        30.1        30.1        30.1        30.1
     1    10  1996    -9    0       19.8        30.1        30.1        30.1        30.1        30.1        30.1        30.1        30.1        30.0        30.0        30.0
     2    10  1996    -9    0       23.4        30.0        30.0        30.0        30.0        30.0        30.0        30.0        30.0        30.0        30.0        30.0
     3    10  1996    -9    0       20.2        30.0        30.0        30.0        30.0        30.0        30.0        30.0        30.0        30.0        30.0        30.0
     4    10  1996    -9    0       18.1        30.0        30.0        30.0        30.0        30.0        30.0        30.0        30.0        30.0        30.0        30.0
     5    10  1996    -9    0       16.6        30.0        30.0        30.0        30.0        30.0        30.0        30.0        30.0        30.0        30.0        30.0
     6    10  1996    -9    0       15.7        30.0        30.0        30.0        30.0        30.0        30.0        30.0        30.0        30.0        30.0        30.0
     7    10  1996    -9    0       48.0        40.7        30.0        30.0        30.0        30.0        30.0        30.0        30.0        30.0        30.0        30.0
     8    10  1996    -9    0       46.8        37.3        35.2        33.1        31.8        31.0        30.6        30.5        30.3        30.3        30.2        30.1
     9    10  1996    -9    0       32.6        36.9        33.9        33.0        32.3        31.8        31.4        31.0        30.8        30.6        30.5        30.4
    10    10  1996    -9    0       28.6        33.0        32.1        31.9        31.7        31.4        31.3        31.0        30.9        30.7        30.6        30.5
    11    10  1996    -9    0       27.0        31.4        31.0        30.9        30.8        30.8        30.7        30.7        30.6        30.6        30.5        30.5
    12    10  1996    -9    0       25.8        30.6        30.4        30.4        30.4        30.4        30.4        30.4        30.3        30.3        30.3        30.3
    13    10  1996    -9    0       23.5        30.3        30.2        30.2        30.2        30.2        30.2        30.2        30.2        30.2        30.2        30.2
    14    10  1996    -9    0       32.2        30.1        30.1        30.1        30.1        30.1        30.1        30.1        30.1        30.1        30.1        30.1
    15    10  1996    -9    0       38.5        30.6        30.3        30.1        30.1        30.1        30.1        30.1        30.0        30.0        30.0        30.0
    16    10  1996    -9    0       47.8        46.0        31.2        30.6        30.3        30.2        30.2        30.1        30.1        30.1        30.1        30.1
    17    10  1996    -9    0       43.6        37.2        36.7        33.6        32.2        31.5        31.1        30.8        30.7        30.4        30.4        30.3
    18    10  1996    -9    0       33.4        35.7        33.6        33.3        32.5        32.0        31.6        31.2        31.0        30.8        30.7        30.6
    19    10  1996    -9    0       29.8        32.5        32.0        31.8        31.6        31.5        31.3        31.1        30.9        30.8        30.7        30.6
    20    10  1996    -9    0       27.8        31.1        30.9        30.8        30.7        30.7        30.7        30.7        30.6        30.6        30.5        30.5
    21    10  1996    -9    0       26.3        30.5        30.4        30.4        30.3        30.3        30.3        30.3        30.3        30.3        30.3        30.3
    22    10  1996    -9    0       24.5        30.2        30.2        30.2        30.2        30.2        30.2        30.2        30.2        30.1        30.1        30.1
    23    10  1996    -9    0       22.3        30.1        30.1        30.1        30.1        30.1        30.1        30.1        30.1        30.1        30.1        30.1
    24    10  1996    -9    0       19.9        30.0        30.0        30.0        30.0        30.0        30.0        30.0        30.0        30.0        30.0        30.0
    25    10  1996    -9    0       18.4        30.0        30.0        30.0        30.0        30.0        30.0        30.0        30.0        30.0        30.0        30.0
    26    10  1996    -9    0       17.1        30.0        30.0        30.0        30.0        30.0        30.0        30.0        30.0        30.0        30.0        30.0
    27    10  1996    -9    0       16.2        30.0        30.0        30.0        30.0        30.0        30.0        30.0        30.0        30.0        30.0        30.0
    28    10  1996    -9    0       15.5        30.0        30.0        30.0        30.0        30.0        30.0        30.0        30.0        30.0        30.0        30.0
    29    10  1996    -9    0       14.7        30.0        30.0        30.0        30.0        30.0        30.0        30.0        30.0        30.0        30.0        30.0
    30    10  1996    -9    0       14.1        30.0        30.0        30.0        30.0        30.0        30.0        30.0        30.0        30.0        30.0        30.0
    31    10  1996    -9    0       13.3        30.0        30.0        30.0        30.0        30.0        30.0        30.0        30.0        30.0        30.0        30.0
     1    11  1996    -9    0       12.7        30.0        30.0        30.0        30.0        30.0        30.0        30.0        30.0        30.0        30.0        30.0
     2    11  1996    -9    0       12.1        30.0        30.0        30.0        30.0        30.0        30.0        30.0        30.0        30.0        30.0        30.0
     3    11  1996    -9    0       11.6        30.0        30.0        30.0        30.0        30.0        30.0        30.0        30.0        30.0        30.0        30.0
     4    11  1996    -9    0       11.3        30.0        30.0        30.0        30.0        30.0        30.0        30.0        30.0        30.0        30.0        30.0
     5    11  1996    -9    0       10.9        30.0        30.0        30.0        30.0        30.0        30.0        30.0        30.0        30.0        30.0        30.0
     6    11  1996    -9    0       10.5        30.0        30.0        30.0        30.0        30.0        30.0        30.0        30.0        30.0        30.0        30.0
     7    11  1996    -9    0       10.4        30.0        30.0        30.0        30.0        30.0        30.0        30.0        30.0        30.0        30.0        30.0
     8    11  1996    -9    0       10.1        30.0        30.0        30.0        30.0        30.0        30.0        30.0        30.0        30.0        30.0        30.0
     9    11  1996    -9    0        9.8        30.0        30.0        30.0        30.0        30.0        30.0        30.0        30.0        30.0        30.0        30.0
    10    11  1996    -9    0        9.5        30.0        30.0        30.0        30.0        30.0        30.0        30.0        30.0        30.0        30.0        30.0
    11    11  1996    -9    0        8.9        30.0        30.0        30.0        30.0        30.0        30.0        30.0        30.0        30.0        30.0        30.0
    12    11  1996    -9    0        8.3        30.0        30.0        30.0        30.0        30.0        30.0        30.0        30.0        30.0        30.0        30.0
    13    11  1996    -9    0        7.8        30.0        30.0        30.0        30.0        30.0        30.0        30.0        30.0        30.0        30.0        30.0
    14    11  1996    -9    0        7.3        30.0        30.0        30.0        30.0        30.0        30.0        30.0        30.0        30.0        30.0        30.0
    15    11  1996    -9    0        6.9        30.0        30.0        30.0        30.0        30.0        30.0        30.0        30.0        30.0        30.0        30.0
    16    11  1996    -9    0       21.7        30.0        30.0        30.0        30.0        30.0        30.0        30.0        30.0        30.0        30.0        30.0
    17    11  1996    -9    0       47.2        37.1        30.0        30.0        30.0        30.0        30.0        30.0        30.0        30.0        30.0        30.0
    18    11  1996    -9    0       47.1        48.1        33.9        31.7        31.0        30.6        30.4        30.3        30.2        30.1        30.1        30.1
    19    11  1996    -9    0       48.2        41.1        37.2        34.7        34.2        32.1        31.6        31.3        30.9        30.7        30.5        30.4
    20    11  1996    -9    0       47.6        49.9        35.3        34.1        33.3        32.8        32.3        31.7        31.4        31.1        31.0        30.8
    21    11  1996    -9    0       35.0        38.0        37.6        35.0        33.7        33.0        32.5        32.0        31.6        31.4        31.2        31.0
    22    11  1996    -9    0       34.2        33.5        33.3        33.0        32.7        32.3        32.0        31.7        31.5        31.3        31.1        31.0
    23    11  1996    -9    0       42.6        31.9        31.6        31.5        31.5        31.4        31.3        31.1        31.0        30.9        30.9        30.8
    24    11  1996    -9    0       43.5        33.9        32.1        31.3        31.0        30.9        30.8        30.7        30.7        30.6        30.6        30.5
    25    11  1996    -9    0       44.5        35.0        32.7        31.7        31.2        30.9        30.8        30.6        30.5        30.5        30.4        30.4
    26    11  1996    -9    0       44.9        35.7        33.1        32.0        31.5        31.1        30.9        30.7        30.6        30.5        30.4        30.4
    27    11  1996    -9    0       34.9        36.0        33.3        32.2        31.6        31.3        31.1        30.8        30.7        30.6        30.5        30.4
    28    11  1996    -9    0       32.9        32.7        32.4        31.9        31.5        31.2        31.0        30.8        30.7        30.6        30.5        30.5
    29    11  1996    -9    0       33.9        31.3        31.2        31.1        31.0        30.9        30.8        30.7        30.6        30.5        30.5        30.4
    30    11  1996    -9    0       33.5        31.5        30.8        30.6        30.6        30.5        30.5        30.4        30.4        30.4        30.3        30.3
     1    12  1996    -9    0       29.8        31.6        31.4        30.5        30.4        30.4        30.3        30.3        30.3        30.2        30.2        30.2
     2    12  1996    -9    0       28.5        30.7        30.6        30.4        30.4        30.3        30.3        30.2        30.2        30.2        30.2        30.1
     3    12  1996    -9    0       27.5        30.3        30.3        30.2        30.2        30.2        30.2        30.2        30.1        30.1        30.1        30.1
     4    12  1996    -9    0       26.5        30.1        30.1        30.1        30.1        30.1        30.1        30.1        30.1        30.1        30.1        30.1
     5    12  1996     1    1       25.7        30.1        30.1        30.0        30.0        30.0        30.0        30.0        30.0        30.0        30.0        30.0
     6    12  1996     2    1       25.0        30.0        30.0        30.0        30.0        30.0        30.0        30.0        30.0        30.0        30.0        30.0
     7    12  1996     3    1       24.2        30.0        30.0        30.0        30.0        30.0        30.0        30.0        30.0        30.0        30.0        30.0
     8    12  1996     4    1       23.6        30.0        30.0        30.0        30.0        30.0        30.0        30.0        30.0        30.0        30.0        30.0
     9    12  1996     5    1       48.8        39.2        30.0        30.0        30.0        30.0        30.0        30.0        30.0        30.0        30.0        30.0
    10    12  1996     6    1       36.3        37.6        35.4        34.3        31.2        30.8        30.5        30.3        30.3        30.2        30.2        30.1
    11    12  1996     7    1       31.6        33.3        33.0        32.7        32.6        32.1        31.3        30.9        30.9        30.6        30.5        30.4
    12    12  1996     8    1       47.9        31.5        31.4        31.2        31.2        31.2        31.1        30.9        30.8        30.7        30.6        30.5
    13    12  1996     9    1       36.1        35.4        34.9        31.5        31.1        31.0        30.8        30.7        30.6        30.5        30.5        30.4
    14    12  1996    10    1       48.5        35.5        32.4        32.3        31.6        31.2        31.0        30.8        30.6        30.5        30.5        30.4
    15    12  1996    11    1       36.5        36.8        33.7        32.2        31.7        31.4        31.1        30.9        30.7        30.6        30.5        30.5
    16    12  1996    12    1       32.0        33.0        32.9        32.2        31.7        31.4        31.1        30.9        30.8        30.6        30.6        30.5
    17    12  1996    13    1       30.0        31.3        31.3        31.2        31.1        31.0        30.9        30.7        30.6        30.6        30.5        30.5
    18    12  1996    14    1       29.1        30.6        30.6        30.5        30.5        30.5        30.4        30.4        30.4        30.4        30.3        30.3
    19    12  1996    15    1       28.3        30.3        30.3        30.2        30.2        30.2        30.2        30.2        30.2        30.2        30.2        30.2
    20    12  1996    16    1       32.7        30.1        30.1        30.1        30.1        30.1        30.1        30.1        30.1        30.1        30.1        30.1
    21    12  1996    17    1       29.9        30.7        30.4        30.4        30.1        30.1        30.1        30.1        30.1        30.1        30.1        30.0
    22    12  1996    18    1       28.6        30.3        30.2        30.2        30.2        30.1        30.1        30.1        30.1        30.1        30.0        30.0
    23    12  1996    19    1       28.4        30.2        30.1        30.1        30.1        30.1        30.1        30.1        30.1        30.0        30.0        30.0
    24    12  1996    20    1       32.2        30.1        30.0        30.0        30.0        30.0        30.0        30.0        30.0        30.0        30.0        30.0
    25    12  1996    21    1       40.7        30.6        30.3        30.1        30.1        30.1        30.0        30.0        30.0        30.0        30.0        30.0
    26    12  1996    22    2       32.9        32.9        31.5        30.7        30.4        30.4        30.2        30.1        30.1        30.1        30.1        30.0
    27    12  1996    23    2       30.5        31.3        31.3        30.9        30.7        30.5        30.4        30.3        30.2        30.2        30.1        30.1
    28    12  1996    24    2       29.6        30.6        30.6        30.5        30.5        30.4        30.3        30.3        30.2        30.2        30.2        30.2
    29    12  1996    25    2       29.2        30.3        30.3        30.2        30.2        30.2        30.2        30.2        30.2        30.1        30.1        30.1
    30    12  1996    26    2       28.7        30.1        30.1        30.1        30.1        30.1        30.1        30.1        30.1        30.1        30.1        30.1
    31    12  1996    27    2       28.5        30.1        30.1        30.0        30.0        30.0        30.0        30.0        30.0        30.0        30.0        30.0
     1     1  1997    28    2       34.3        30.0        30.0        30.0        30.0        30.0        30.0        30.0        30.0        30.0        30.0        30.0
     2     1  1997    29    2       36.2        31.1        30.5        30.2        30.1        30.1        30.1        30.0        30.0        30.0        30.0        30.0
     3     1  1997    30    2       42.3        32.0        31.0        30.6        30.4        30.2        30.2        30.1        30.1        30.1        30.1        30.0
     4     1  1997    31    2       45.7        33.9        32.1        31.1        30.7        30.5        30.4        30.3        30.2        30.2        30.1        30.1
     5     1  1997    32    2       49.2        35.5        33.0        31.8        31.3        31.2        30.7        30.5        30.5        30.3        30.3        30.2
     6     1  1997    33    2       37.1        37.0        33.8        32.4        31.7        31.3        31.1        30.8        30.7        30.6        30.5        30.4
     7     1  1997    34    2       32.3        33.1        33.1        32.3        31.8        31.4        31.2        30.9        30.8        30.7        30.6        30.5
     8     1  1997    35    2       30.4        31.4        31.4        31.3        31.2        31.0        30.9        30.8        30.7        30.6        30.5        30.5
     9     1  1997    36    2       36.5        30.6        30.6        30.6        30.5        30.5        30.5        30.5        30.4        30.4        30.4        30.3
    10     1  1997    37    2       35.8        31.9        31.0        30.6        30.4        30.4        30.3        30.3        30.3        30.2        30.2        30.2
    11     1  1997    38    2       31.6        32.3        31.2        30.7        30.5        30.4        30.3        30.3        30.2        30.2        30.2        30.2
    12     1  1997    39    2       29.1        31.0        30.9        30.7        30.5        30.4        30.3        30.3        30.2        30.2        30.2        30.2
    13     1  1997    40    2       27.3        30.5        30.4        30.3        30.3        30.3        30.2        30.2        30.2        30.2        30.1        30.1
    14     1  1997    41    2       25.9        30.2        30.2        30.1        30.1        30.1        30.1        30.1        30.1        30.1        30.1        30.1
    15     1  1997    42    2       24.9        30.1        30.1        30.1        30.1        30.1        30.1        30.1        30.1        30.1        30.1        30.1
    16     1  1997    43    2       24.4        30.0        30.0        30.0        30.0        30.0        30.0        30.0        30.0        30.0        30.0        30.0
    17     1  1997    44    2       24.2        30.0        30.0        30.0        30.0        30.0        30.0        30.0        30.0        30.0        30.0        30.0
    18     1  1997    45    2       23.8        30.0        30.0        30.0        30.0        30.0        30.0        30.0        30.0        30.0        30.0        30.0
    19     1  1997    46    2       23.7        30.0        30.0        30.0        30.0        30.0        30.0        30.0        30.0        30.0        30.0        30.0
    20     1  1997    47    2       23.3        30.0        30.0        30.0        30.0        30.0        30.0        30.0        30.0        30.0        30.0        30.0
    21     1  1997    48    2       23.1        30.0        30.0        30.0        30.0        30.0        30.0        30.0        30.0        30.0        30.0        30.0
    22     1  1997    49    2       21.9        30.0        30.0        30.0        30.0        30.0        30.0        30.0        30.0        30.0        30.0        30.0
    23     1  1997    50    2       20.8        30.0        30.0        30.0        30.0        30.0        30.0        30.0        30.0        30.0        30.0        30.0
    24     1  1997    51    2       20.1        30.0        30.0        30.0        30.0        30.0        30.0        30.0        30.0        30.0        30.0        30.0
    25     1  1997    52    2       19.5        30.0        30.0        30.0        30.0        30.0        30.0        30.0        30.0        30.0        30.0        30.0
    26     1  1997    53    2       18.6        30.0        30.0        30.0        30.0        30.0        30.0        30.0        30.0        30.0        30.0        30.0
    27     1  1997    54    2       17.7        30.0        30.0        30.0        30.0        30.0        30.0        30.0        30.0        30.0        30.0        30.0
    28     1  1997    55    2       17.0        30.0        30.0        30.0        30.0        30.0        30.0        30.0        30.0        30.0        30.0        30.0
    29     1  1997    56    2       15.9        30.0        30.0        30.0        30.0        30.0        30.0        30.0        30.0        30.0        30.0        30.0
    30     1  1997    57    2       15.1        30.0        30.0        30.0        30.0        30.0        30.0        30.0        30.0        30.0        30.0        30.0
    31     1  1997    58    2       14.3        30.0        30.0        30.0        30.0        30.0        30.0        30.0        30.0        30.0        30.0        30.0
     1     2  1997    59    2       13.6        30.0        30.0        30.0        30.0        30.0        30.0        30.0        30.0        30.0        30.0        30.0
     2     2  1997    60    2       13.1        30.0        30.0        30.0        30.0        30.0        30.0        30.0        30.0        30.0        30.0        30.0
     3     2  1997    61    2       12.5        30.0        30.0        30.0        30.0        30.0        30.0        30.0        30.0        30.0        30.0        30.0
     4     2  1997    62    2       12.4        30.0        30.0        30.0        30.0        30.0        30.0        30.0        30.0        30.0        30.0        30.0
     5     2  1997    63    2       14.6        30.0        30.0        30.0        30.0        30.0        30.0        30.0        30.0        30.0        30.0        30.0
     6     2  1997    64    2       14.2        30.0        30.0        30.0        30.0        30.0        30.0        30.0        30.0        30.0        30.0        30.0
     7     2  1997    65    2       13.0        30.0        30.0        30.0        30.0        30.0        30.0        30.0        30.0        30.0        30.0        30.0
     8     2  1997    66    2       12.1        30.0        30.0        30.0        30.0        30.0        30.0        30.0        30.0        30.0        30.0        30.0
     9     2  1997    67    2       11.2        30.0        30.0        30.0        30.0        30.0        30.0        30.0        30.0        30.0        30.0        30.0
    10     2  1997    68    2       10.6        30.0        30.0        30.0        30.0        30.0        30.0        30.0        30.0        30.0        30.0        30.0
    11     2  1997    69    2       10.0        30.0        30.0        30.0        30.0        30.0        30.0        30.0        30.0        30.0        30.0        30.0
    12     2  1997    70    2        9.9        29.6        30.0        30.0        30.0        30.0        30.0        30.0        30.0        30.0        30.0        30.0
    13     2  1997    71    2        9.8        29.0        30.0        30.0        30.0        30.0        30.0        30.0        30.0        30.0        30.0        30.0
    14     2  1997    72    2        9.6        28.4        30.0        30.0        30.0        30.0        30.0        30.0        30.0        30.0        30.0        30.0
    15     2  1997    73    2       17.4        28.4        30.0        30.0        30.0        30.0        30.0        30.0        30.0        30.0        30.0        30.0
    16     2  1997    74    2       16.4        28.4        30.0        30.0        30.0        30.0        30.0        30.0        30.0        30.0        30.0        30.0
    17     2  1997    75    2       15.1        28.4        30.0        30.0        30.0        30.0        30.0        30.0        30.0        30.0        30.0        30.0
    18     2  1997    76    2       13.8        28.4        30.0        30.0        30.0        30.0        30.0        30.0        30.0        30.0        30.0        30.0
    19     2  1997    77    2       12.5        28.4        30.0        30.0        30.0        30.0        30.0        30.0        30.0        30.0        30.0        30.0
    20     2  1997    78    2       11.2        28.4        30.0        30.0        30.0        30.0        30.0        30.0        30.0        30.0        30.0        30.0
    21     2  1997    79    2       10.3        28.4        30.0        30.0        30.0        30.0        30.0        30.0        30.0        30.0        30.0        30.0
    22     2  1997    80    2        9.9        27.8        30.0        30.0        30.0        30.0        30.0        30.0        30.0        30.0        30.0        30.0
    23     2  1997    81    2        9.8        26.9        30.0        30.0        30.0        30.0        30.0        30.0        30.0        30.0        30.0        30.0
    24     2  1997    82    2        9.8        26.9        30.0        30.0        30.0        30.0        30.0        30.0        30.0        30.0        30.0        30.0
    25     2  1997    83    2        9.5        26.4        30.0        30.0        30.0        30.0        30.0        30.0        30.0        30.0        30.0        30.0
    26     2  1997    84    2        9.3        26.0        30.0        30.0        30.0        30.0        30.0        30.0        30.0        30.0        30.0        30.0
    27     2  1997    85    2       10.6        26.0        30.0        30.0        30.0        30.0        30.0        30.0        30.0        30.0        30.0        30.0
    28     2  1997    86    2        9.7        24.6        30.0        30.0        30.0        30.0        30.0        30.0        30.0        30.0        30.0        30.0
     1     3  1997    87    2        8.6        23.0        30.0        30.0        30.0        30.0        30.0        30.0        30.0        30.0        30.0        30.0
     2     3  1997    88    2        8.1        21.3        30.0        30.0        30.0        30.0        30.0        30.0        30.0        30.0        30.0        30.0
     3     3  1997    89    2        8.0        19.3        30.0        30.0        30.0        30.0        30.0        30.0        30.0        30.0        30.0        30.0
     4     3  1997    90    2        7.9        17.5        30.0        30.0        30.0        30.0        30.0        30.0        30.0        30.0        30.0        30.0
     5     3  1997    91    2        7.9        16.3        30.0        30.0        30.0        30.0        30.0        30.0        30.0        30.0        30.0        30.0
     6     3  1997    92    2        7.9        15.3        30.0        30.0        30.0        30.0        30.0        30.0        30.0        30.0        30.0        30.0
     7     3  1997    93    2        7.8        13.0        30.0        30.0        30.0        30.0        30.0        30.0        30.0        30.0        30.0        30.0
     8     3  1997    94    2        7.8        10.8        30.0        30.0        30.0        30.0        30.0        30.0        30.0        30.0        30.0        30.0
     9     3  1997    95    2        7.8         9.9        28.7        30.0        30.0        30.0        30.0        30.0        30.0        30.0        30.0        30.0
    10     3  1997    96    2        7.7         9.9        26.1        29.9        30.0        30.0        30.0        30.0        30.0        30.0        30.0        30.0
    11     3  1997    97    2        7.7         9.9        24.0        29.9        30.0        30.0        30.0        30.0        30.0        30.0        30.0        30.0
    12     3  1997    98    2        7.7         9.9        21.4        29.8        30.0        30.0        30.0        30.0        30.0        30.0        30.0        30.0
    13     3  1997    99    2        7.7         9.9        18.9        29.8        30.0        30.0        30.0        30.0        30.0        30.0        30.0        30.0
    14     3  1997   100    2        7.7         9.9        16.9        29.8        30.0        30.0        30.0        30.0        30.0        30.0        30.0        30.0
    15     3  1997   101    2        7.7         9.9        14.7        29.8        30.0        30.0        30.0        30.0        30.0        30.0        30.0        30.0
    16     3  1997   102    2        7.6         9.9        12.2        29.5        30.0        30.0        30.0        30.0        30.0        30.0        30.0        30.0
    17     3  1997   103    2        7.6         9.9        10.5        28.9        30.0        30.0        30.0        30.0        30.0        30.0        30.0        30.0
    18     3  1997   104    2        7.6         9.9         9.9        27.2        30.0        30.0        30.0        30.0        30.0        30.0        30.0        30.0
    19     3  1997   105    2        7.6         9.9         9.9        25.0        30.0        30.0        30.0        30.0        30.0        30.0        30.0        30.0
    20     3  1997   106    2        7.6         9.9         9.9        22.6        29.8        30.0        30.0        30.0        30.0        30.0        30.0        30.0
    21     3  1997   107    2        7.6         9.9         9.9        20.1        29.7        30.0        30.0        30.0        30.0        30.0        30.0        30.0
    22     3  1997   108    2        7.6         9.9         9.9        17.9        29.7        30.0        30.0        30.0        30.0        30.0        30.0        30.0
    23     3  1997   109    2        7.6         9.9         9.9        16.2        29.7        30.0        30.0        30.0        30.0        30.0        30.0        30.0
    24     3  1997   110    2       23.8         9.9         9.9        16.2        29.7        30.0        30.0        30.0        30.0        30.0        30.0        30.0
    25     3  1997   111    2       31.5         9.9         9.9        16.2        29.7        30.0        30.0        30.0        30.0        30.0        30.0        30.0
    26     3  1997   112    2       27.2        10.6         9.9        16.2        29.7        30.0        30.0        30.0        30.0        30.0        30.0        30.0
    27     3  1997   113    2       23.9        10.6         9.9        16.2        29.7        30.0        30.0        30.0        30.0        30.0        30.0        30.0
    28     3  1997   114    2       21.6        10.6         9.9        16.2        29.7        30.0        30.0        30.0        30.0        30.0        30.0        30.0
    29     3  1997   115    2       23.7        10.4         9.9        16.2        29.7        30.0        30.0        30.0        30.0        30.0        30.0        30.0
    30     3  1997   116    2       20.3        10.4         9.9        16.2        29.7        30.0        30.0        30.0        30.0        30.0        30.0        30.0
    31     3  1997   117    2       16.8         9.9         9.9        16.0        29.7        30.0        30.0        30.0        30.0        30.0        30.0        30.0
     1     4  1997   118    2       13.5         9.9         9.9        16.0        29.7        30.0        30.0        30.0        30.0        30.0        30.0        30.0
     2     4  1997   119    2       11.0         9.9         9.9        16.0        29.7        30.0        30.0        30.0        30.0        30.0        30.0        30.0
     3     4  1997   120    2        9.9         9.9         9.9        13.6        29.4        30.0        30.0        30.0        30.0        30.0        30.0        30.0
     4     4  1997   121    2        9.6         9.9         9.9        11.5        28.8        30.0        30.0        30.0        30.0        30.0        30.0        30.0
     5     4  1997   122    2        9.3         9.9         9.9        10.3        26.5        30.0        30.0        30.0        30.0        30.0        30.0        30.0
     6     4  1997   123    2        9.1         9.9         9.9        10.0        25.0        30.0        30.0        30.0        30.0        30.0        30.0        30.0
     7     4  1997   124    2        8.8         9.9         9.9        10.0        22.7        28.5        30.0        30.0        30.0        30.0        30.0        30.0
     8     4  1997   125    2        8.5         9.9         9.9        10.0        20.4        27.1        30.0        30.0        30.0        30.0        30.0        30.0
     9     4  1997   126    2        8.2         9.9         9.9        10.0        18.1        26.4        30.0        30.0        30.0        30.0        30.0        30.0
    10     4  1997   127    2        7.9         9.9         9.9        10.0        15.8        25.5        30.0        30.0        30.0        30.0        30.0        30.0
    11     4  1997   128    2        7.7         9.9         9.9        10.0        13.5        24.7        30.0        30.0        30.0        30.0        30.0        30.0
    12     4  1997   129    2        7.7         9.9         9.9        10.0        11.5        23.8        30.0        30.0        30.0        30.0        30.0        30.0
    13     4  1997   130    2        7.7         9.9         9.9        10.0        10.4        21.7        29.7        30.0        30.0        30.0        30.0        30.0
    14     4  1997   131    2        7.7         9.9         9.9        10.0        10.0        19.5        29.6        30.0        30.0        30.0        30.0        30.0
    15     4  1997   132    2        7.7         9.9         9.9        10.0        10.0        17.6        29.6        30.0        30.0        30.0        30.0        30.0
    16     4  1997   133    2        7.7         9.9         9.9        10.0        10.0        15.4        28.5        30.0        30.0        30.0        30.0        30.0
    17     4  1997   134    2        7.7         9.9         9.9        10.0        10.0        13.3        27.3        30.0        30.0        30.0        30.0        30.0
    18     4  1997   135    2        7.7         9.9         9.9        10.0        10.0        11.6        25.8        30.0        30.0        30.0        30.0        30.0
    19     4  1997   136    2        7.7         9.9         9.9        10.0        10.0        10.5        24.4        30.0        30.0        30.0        30.0        30.0
    20     4  1997   137    2        8.4         9.9         9.9        10.0        10.0        10.1        24.4        30.0        30.0        30.0        30.0        30.0
    21     4  1997   138    2       49.8        22.8         9.9        10.0        10.0        10.1        24.4        30.0        30.0        30.0        30.0        30.0
    22     4  1997   139    2       49.2        35.6        12.5        10.0        10.0        10.1        24.4        30.0        30.0        30.0        30.0        30.0
    23     4  1997   140    2       34.9        37.0        22.6        10.0        10.0        10.1        24.4        30.0        30.0        30.0        30.0        30.0
    24     4  1997   141    2       28.9        32.2        29.3        10.0        10.0        10.1        24.4        30.0        30.0        30.0        30.0        30.0
    25     4  1997   142    2       25.7        30.0        30.2        10.2        10.0        10.1        24.4        30.0        30.0        30.0        30.0        30.0
    26     4  1997   143    2       22.7        30.0        30.1        10.3        10.0        10.1        24.4        30.0        30.0        30.0        30.0        30.0
    27     4  1997   144    2       35.5        30.0        30.0        10.4        10.0        10.1        24.4        30.0        30.0        30.0        30.0        30.0
    28     4  1997   145    2       41.5        31.4        30.7        11.4        10.0        10.1        24.4        30.0        30.0        30.0        30.0        30.0
    29     4  1997   146    2       36.5        33.5        32.5        15.5        10.0        10.1        24.4        30.0        30.0        30.0        30.0        30.0
    30     4  1997   147    2       30.4        32.9        31.7        20.5        10.0        10.1        24.4        30.0        30.0        30.0        30.0        30.0
     1     5  1997   148    2       27.0        29.9        30.8        23.3        10.0        10.1        24.4        30.0        30.0        30.0        30.0        30.0
     2     5  1997   149    2       23.7        28.1        30.4        23.7        10.0        10.1        24.4        30.0        30.0        30.0        30.0        30.0
     3     5  1997   150    2       20.5        26.6        30.2        23.9        10.0        10.1        24.4        30.0        30.0        30.0        30.0        30.0
     4     5  1997   151    2       17.3        25.0        30.1        24.0        10.0        10.1        24.4        30.0        30.0        30.0        30.0        30.0
     5     5  1997   152    2       14.3        24.2        30.0        24.0        10.0        10.1        24.4        30.0        30.0        30.0        30.0        30.0
     6     5  1997   153    2       11.9        21.9        30.0        24.1        10.0        10.1        24.4        30.0        30.0        30.0        30.0        30.0
     7     5  1997   154    2       12.8        21.4        30.0        24.1        10.0        10.1        24.4        30.0        30.0        30.0        30.0        30.0
     8     5  1997   155    2       35.1        21.4        30.0        24.1        10.0        10.1        24.4        30.0        30.0        30.0        30.0        30.0
     9     5  1997   156    2       29.1        23.9        30.0        24.1        10.0        10.1        24.4        30.0        30.0        30.0        30.0        30.0
    10     5  1997   157    2       25.9        22.7        30.0        24.1        10.0        10.1        24.4        30.0        30.0        30.0        30.0        30.0
    11     5  1997   158    2       23.0        21.3        30.0        24.1        10.0        10.1        24.4        30.0        30.0        30.0        30.0        30.0
    12     5  1997   159    2       19.8        19.6        30.0        24.1        10.0        10.1        24.4        30.0        30.0        30.0        30.0        30.0
    13     5  1997   160    2       16.7        17.5        30.0        24.1        10.0        10.1        24.4        30.0        30.0        30.0        30.0        30.0
    14     5  1997   161    2       13.7        15.4        30.0        24.1        10.0        10.1        24.4        30.0        30.0        30.0        30.0        30.0
    15     5  1997   162    2       11.3        12.7        29.6        24.1        10.0        10.1        24.4        30.0        30.0        30.0        30.0        30.0
    16     5  1997   163    2       10.2        10.7        29.5        24.1        10.0        10.1        24.4        30.0        30.0        30.0        30.0        30.0
    17     5  1997   164    2       10.0        10.0        26.8        22.6        10.0        10.1        24.4        30.0        30.0        30.0        30.0        30.0
    18     5  1997   165    2        9.9        10.0        24.1        20.9        10.0        10.1        24.4        30.0        30.0        30.0        30.0        30.0
    19     5  1997   166    2       10.0        10.0        21.4        19.1        10.0        10.1        24.4        30.0        30.0        30.0        30.0        30.0
    20     5  1997   167    3        9.9        10.0        18.7        17.6        10.0        10.1        24.4        30.0        30.0        30.0        30.0        30.0
    21     5  1997   168    3       23.1        10.0        18.7        17.6        10.0        10.1        24.4        30.0        30.0        30.0        30.0        30.0
    22     5  1997   169    3       24.6        10.0        17.9        17.6        10.0        10.1        24.4        30.0        30.0        30.0        30.0        30.0
    23     5  1997   170    3       21.7        10.0        16.3        17.6        10.0        10.1        24.4        30.0        30.0        30.0        30.0        30.0
    24     5  1997   171    3       18.7        10.0        15.1        17.6        10.0        10.1        24.4        30.0        30.0        30.0        30.0        30.0
    25     5  1997   172    3       15.6        10.0        13.3        17.6        10.0        10.1        24.4        30.0        30.0        30.0        30.0        30.0
    26     5  1997   173    3       12.7        10.0        11.6        17.6        10.0        10.1        24.4        30.0        30.0        30.0        30.0        30.0
    27     5  1997   174    3       10.6        10.0        10.3        15.9        10.0        10.1        24.4        30.0        30.0        30.0        30.0        30.0
    28     5  1997   175    3       10.0        10.0        10.0        13.5        10.0        10.0        22.8        30.0        30.0        30.0        30.0        30.0
    29     5  1997   176    3       10.0        10.0        10.0        11.6        10.0        10.0        20.9        28.8        30.0        30.0        30.0        30.0
    30     5  1997   177    3       10.0        10.0        10.0        10.4        10.0        10.0        18.9        28.3        30.0        30.0        30.0        30.0
    31     5  1997   178    3        9.8        10.0        10.0        10.0        10.0        10.0        17.0        27.1        30.0        30.0        30.0        30.0
     1     6  1997   179    3       47.0        20.8        10.0        10.0        10.0        10.0        17.0        27.1        30.0        30.0        30.0        30.0
     2     6  1997   180    3       38.7        32.5        10.5        10.0        10.0        10.0        17.0        27.1        30.0        30.0        30.0        30.0
     3     6  1997   181    4       30.6        32.8        14.8        10.0        10.0        10.0        17.0        27.1        30.0        30.0        30.0        30.0
     4     6  1997   182    4       27.2        30.2        16.7        10.0        10.0        10.0        17.0        27.1        30.0        30.0        30.0        30.0
     5     6  1997   183    4       36.8        30.1        16.8        10.0        10.0        10.0        17.0        27.1        30.0        30.0        30.0        30.0
     6     6  1997   184    4       36.8        31.7        19.0        10.0        10.0        10.0        17.0        27.1        30.0        30.0        30.0        30.0
     7     6  1997   185    4       29.8        31.0        22.3        10.0        10.0        10.0        17.0        27.1        30.0        30.0        30.0        30.0
     8     6  1997   186    4       26.7        28.7        22.8        10.0        10.0        10.0        17.0        27.1        30.0        30.0        30.0        30.0
     9     6  1997   187    4       23.6        26.6        22.8        10.0        10.0        10.0        17.0        27.1        30.0        30.0        30.0        30.0
    10     6  1997   188    4       20.5        24.5        22.8        10.0        10.0        10.0        17.0        27.1        30.0        30.0        30.0        30.0
    11     6  1997   189    4       17.4        22.9        22.8        10.0        10.0        10.0        17.0        27.1        30.0        30.0        30.0        30.0
    12     6  1997   190    4       14.4        20.4        22.8        10.0        10.0        10.0        17.0        27.1        30.0        30.0        30.0        30.0
    13     6  1997   191    4       11.6        19.1        22.8        10.0        10.0        10.0        17.0        27.1        30.0        30.0        30.0        30.0
    14     6  1997   192    4       10.1        16.2        22.4        10.0        10.0        10.0        17.0        27.1        30.0        30.0        30.0        30.0
    15     6  1997   193    4       10.0        13.5        19.7        10.0        10.0        10.0        16.5        27.1        30.0        30.0        30.0        30.0
    16     6  1997   194    4       10.0        11.3        17.0        10.0        10.0        10.0        16.0        27.1        30.0        30.0        30.0        30.0
    17     6  1997   195    4       10.0        10.2        14.3        10.0        10.0        10.0        14.9        27.1        30.0        30.0        30.0        30.0
    18     6  1997   196    4       10.0        10.0        12.0        10.0        10.0        10.0        13.9        27.1        30.0        30.0        30.0        30.0
    19     6  1997   197    4       13.4        10.0        10.7        10.0        10.0        10.0        13.9        27.1        30.0        30.0        30.0        30.0
    20     6  1997   198    4       10.9        10.0        10.0        10.0        10.0        10.0        12.8        27.1        30.0        30.0        30.0        30.0
    21     6  1997   199    4        9.9        10.0        10.0        10.0        10.0        10.0        11.4        26.6        30.0        30.0        30.0        30.0
    22     6  1997   200    4        9.9        10.0        10.0        10.0        10.0        10.0        10.6        25.0        28.9        30.0        30.0        30.0
    23     6  1997   201    4        9.9        10.0        10.0        10.0        10.0        10.0        10.2        23.3        28.0        30.0        30.0        30.0
    24     6  1997   202    4        9.9        10.0        10.0        10.0        10.0        10.0        10.0        21.6        26.8        30.0        30.0        30.0
    25     6  1997   203    4        9.9        10.0        10.0        10.0        10.0        10.0        10.0        20.0        25.4        30.0        30.0        30.0
    26     6  1997   204    4        9.9        10.0        10.0        10.0        10.0        10.0        10.0        18.3        24.6        30.0        30.0        30.0
    27     6  1997   205    4        9.9        10.0        10.0        10.0        10.0        10.0        10.0        16.6        23.2        29.7        30.0        30.0
    28     6  1997   206    4        9.8        10.0        10.0        10.0        10.0        10.0        10.0        15.0        21.8        29.6        30.0        30.0
    29     6  1997   207    4        9.8        10.0        10.0        10.0        10.0        10.0        10.0        13.5        20.5        29.6        30.0        30.0
    30     6  1997   208    4        9.8        10.0        10.0        10.0        10.0        10.0        10.0        12.2        19.5        29.6        30.0        30.0
     1     7  1997   209    4        9.8        10.0        10.0        10.0        10.0        10.0        10.0        11.2        18.1        29.5        30.0        30.0
     2     7  1997   210    4        9.8        10.0        10.0        10.0        10.0        10.0        10.0        10.5        16.7        29.3        30.0        30.0
     3     7  1997   211    4        9.8        10.0        10.0        10.0        10.0        10.0        10.0        10.2        15.3        28.2        30.0        30.0
     4     7  1997   212    4        9.8        10.0        10.0        10.0        10.0        10.0        10.0        10.1        14.0        27.7        30.0        30.0
     5     7  1997   213    4       10.0        10.0        10.0        10.0        10.0        10.0        10.0        10.0        13.0        27.7        30.0        30.0
     6     7  1997   214    4        9.4        10.0        10.0        10.0        10.0        10.0        10.0        10.0        12.0        27.0        30.0        30.0
     7     7  1997   215    4        8.6        10.0        10.0        10.0        10.0        10.0        10.0        10.0        11.2        25.9        30.0        30.0
     8     7  1997   216    4        8.4        10.0        10.0        10.0        10.0        10.0        10.0        10.0        10.7        24.8        29.9        30.0
     9     7  1997   217    4        8.4        10.0        10.0        10.0        10.0        10.0        10.0        10.0        10.4        23.7        29.8        30.0
    10     7  1997   218    4        8.4        10.0        10.0        10.0        10.0        10.0        10.0        10.0        10.2        22.5        29.7        30.0
    11     7  1997   219    4        8.3        10.0        10.0        10.0        10.0        10.0        10.0        10.0        10.1        21.4        29.6        30.0
    12     7  1997   220    4        8.3        10.0        10.0        10.0        10.0        10.0        10.0        10.0        10.0        20.3        29.6        30.0
    13     7  1997   221    4        8.3        10.0        10.0        10.0        10.0        10.0        10.0        10.0        10.0        19.4        29.6        30.0
    14     7  1997   222    4        8.3        10.0        10.0        10.0        10.0        10.0        10.0        10.0        10.0        18.5        29.6        30.0
    15     7  1997   223    4        8.3        10.0        10.0        10.0        10.0        10.0        10.0        10.0        10.0        17.8        29.6        30.0
    16     7  1997   224    4        8.2        10.0        10.0        10.0        10.0        10.0        10.0        10.0        10.0        17.1        29.6        30.0
    17     7  1997   225    4        8.2        10.0        10.0        10.0        10.0        10.0        10.0        10.0        10.0        16.7        29.6        30.0
    18     7  1997   226    4       16.9        10.0        10.0        10.0        10.0        10.0        10.0        10.0        10.0        16.7        29.6        30.0
    19     7  1997   227    4       14.7        10.0        10.0        10.0        10.0        10.0        10.0        10.0        10.0        16.7        29.6        30.0
    20     7  1997   228    4       12.4        10.0        10.0        10.0        10.0        10.0        10.0        10.0        10.0        16.7        29.6        30.0
    21     7  1997   229    4       10.6        10.0        10.0        10.0        10.0        10.0        10.0        10.0        10.0        16.7        29.6        30.0
    22     7  1997   230    4       10.5        10.0        10.0        10.0        10.0        10.0        10.0        10.0        10.0        16.7        29.6        30.0
    23     7  1997    -9    0       10.3        10.0        10.0        10.0        10.0        10.0        10.0        10.0        10.0        16.7        29.6        30.0
    24     7  1997    -9    0       10.2        10.0        10.0        10.0        10.0        10.0        10.0        10.0        10.0        16.7        29.6        30.0
    25     7  1997    -9    0       10.1        10.0        10.0        10.0        10.0        10.0        10.0        10.0        10.0        16.7        29.6        30.0
    26     7  1997    -9    0        9.9        10.0        10.0        10.0        10.0        10.0        10.0        10.0        10.0        16.7        29.6        30.0
    27     7  1997    -9    0        9.8        10.0        10.0        10.0        10.0        10.0        10.0        10.0        10.0        16.7        29.6        30.0
    28     7  1997    -9    0        9.6        10.0        10.0        10.0        10.0        10.0        10.0        10.0        10.0        16.7        29.6        30.0
    29     7  1997    -9    0        9.4        10.0        10.0        10.0        10.0        10.0        10.0        10.0        10.0        16.7        29.6        30.0
    30     7  1997    -9    0        9.2        10.0        10.0        10.0        10.0        10.0        10.0        10.0        10.0        16.7        29.6        30.0
    31     7  1997    -9    0        9.1        10.0        10.0        10.0        10.0        10.0        10.0        10.0        10.0        16.7        29.6        30.0
     1     8  1997    -9    0        8.9        10.0        10.0        10.0        10.0        10.0        10.0        10.0        10.0        16.7        29.6        30.0
     2     8  1997    -9    0        8.8        10.0        10.0        10.0        10.0        10.0        10.0        10.0        10.0        16.7        29.6        30.0
     3     8  1997    -9    0        8.6        10.0        10.0        10.0        10.0        10.0        10.0        10.0        10.0        16.7        29.6        30.0
     4     8  1997    -9    0        8.5        10.0        10.0        10.0        10.0        10.0        10.0        10.0        10.0        16.7        29.6        30.0
     5     8  1997    -9    0        8.4        10.0        10.0        10.0        10.0        10.0        10.0        10.0        10.0        16.7        29.6        30.0
     6     8  1997    -9    0        8.3        10.0        10.0        10.0        10.0        10.0        10.0        10.0        10.0        16.7        29.6        30.0
     7     8  1997    -9    0        8.2        10.0        10.0        10.0        10.0        10.0        10.0        10.0        10.0        16.7        29.6        30.0
     8     8  1997    -9    0        8.1        10.0        10.0        10.0        10.0        10.0        10.0        10.0        10.0        16.7        29.6        30.0
     9     8  1997    -9    0        7.9        10.0        10.0        10.0        10.0        10.0        10.0        10.0        10.0        16.7        29.6        30.0
    10     8  1997    -9    0        7.8        10.0        10.0        10.0        10.0        10.0        10.0        10.0        10.0        16.7        29.6        30.0
    11     8  1997    -9    0        7.6        10.0        10.0        10.0        10.0        10.0        10.0        10.0        10.0        16.7        29.6        30.0
    12     8  1997    -9    0        7.5        10.0        10.0        10.0        10.0        10.0        10.0        10.0        10.0        16.7        29.6        30.0
    13     8  1997    -9    0        7.4        10.0        10.0        10.0        10.0        10.0        10.0        10.0        10.0        16.7        29.6        30.0
    14     8  1997    -9    0        7.2        10.0        10.0        10.0        10.0        10.0        10.0        10.0        10.0        16.7        29.6        30.0
    15     8  1997    -9    0        7.1        10.0        10.0        10.0        10.0        10.0        10.0        10.0        10.0        16.7        29.6        30.0
    16     8  1997    -9    0        7.0        10.0        10.0        10.0        10.0        10.0        10.0        10.0        10.0        16.7        29.6        30.0
    17     8  1997    -9    0        6.9        10.0        10.0        10.0        10.0        10.0        10.0        10.0        10.0        16.7        29.6        30.0
    18     8  1997    -9    0        6.8        10.0        10.0        10.0        10.0        10.0        10.0        10.0        10.0        16.7        29.6        30.0
    19     8  1997    -9    0       10.1        10.0        10.0        10.0        10.0        10.0        10.0        10.0        10.0        16.7        29.6        30.0
    20     8  1997    -9    0       10.0        10.0        10.0        10.0        10.0        10.0        10.0        10.0        10.0        16.7        29.6        30.0
    21     8  1997    -9    0        9.9        10.0        10.0        10.0        10.0        10.0        10.0        10.0        10.0        16.7        29.6        30.0
    22     8  1997    -9    0        9.8        10.0        10.0        10.0        10.0        10.0        10.0        10.0        10.0        16.7        29.6        30.0

Legend

DAP          : Days after planting
Stage        : 0: before/after planting
Stage        : 1: emergence or transplant recovery
Stage        : 2: vegetative stage
Stage        : 3: flowering
Stage        : 4: yield formation and ripening
