AquaCrop 4.0 (January 2012) - Output created on (date) : 24/01/2012   at (time) : 20:16:26
Net Irrigation Requirement

   Day Month  Year   DAP Stage        E        Trx        ET      Rain      Inet
                                      mm        mm        mm        mm        mm
     1     4  1993    -9    0        1.0       0.0       1.0       0.0    -999.9
     2     4  1993    -9    0        0.9       0.0       0.9       0.0    -999.9
     3     4  1993    -9    0        0.9       0.0       0.9       0.0    -999.9
     4     4  1993    -9    0        0.7       0.0       0.7       0.0    -999.9
     5     4  1993    -9    0        0.7       0.0       0.7       0.0    -999.9
     6     4  1993    -9    0        0.7       0.0       0.7       0.0    -999.9
     7     4  1993    -9    0        0.6       0.0       0.6       0.0    -999.9
     8     4  1993    -9    0        0.6       0.0       0.6       0.0    -999.9
     9     4  1993    -9    0        0.6       0.0       0.6       0.0    -999.9
    10     4  1993    -9    0        0.5       0.0       0.5       0.0    -999.9
    11     4  1993    -9    0        3.3       0.0       3.3       4.0    -999.9
    12     4  1993    -9    0        0.9       0.0       0.9       0.0    -999.9
    13     4  1993    -9    0        0.3       0.0       0.3       0.0    -999.9
    14     4  1993    -9    0        0.3       0.0       0.3       0.0    -999.9
    15     4  1993    -9    0        0.2       0.0       0.2       0.0    -999.9
    16     4  1993    -9    0        0.3       0.0       0.3       0.0    -999.9
    17     4  1993    -9    0        0.2       0.0       0.2       0.0    -999.9
    18     4  1993    -9    0        0.2       0.0       0.2       0.0    -999.9
    19     4  1993    -9    0        0.2       0.0       0.2       0.0    -999.9
    20     4  1993    -9    0        0.2       0.0       0.2       0.0    -999.9
    21     4  1993    -9    0        0.2       0.0       0.2       0.0    -999.9
    22     4  1993    -9    0        0.2       0.0       0.2       0.0    -999.9
    23     4  1993    -9    0        0.3       0.0       0.3       0.0    -999.9
    24     4  1993    -9    0        0.2       0.0       0.2       0.0    -999.9
    25     4  1993    -9    0        0.2       0.0       0.2       0.0    -999.9
    26     4  1993    -9    0        0.3       0.0       0.3       0.0    -999.9
    27     4  1993    -9    0        0.2       0.0       0.2       0.0    -999.9
    28     4  1993    -9    0        0.2       0.0       0.2       0.0    -999.9
    29     4  1993    -9    0        0.2       0.0       0.2       0.0    -999.9
    30     4  1993    -9    0        0.3       0.0       0.3       0.0    -999.9
     1     5  1993    -9    0        0.3       0.0       0.3       0.0    -999.9
     2     5  1993    -9    0        0.3       0.0       0.3       0.0    -999.9
     3     5  1993    -9    0        0.2       0.0       0.2       0.0    -999.9
     4     5  1993    -9    0        0.2       0.0       0.2       0.0    -999.9
     5     5  1993    -9    0        0.2       0.0       0.2       0.0    -999.9
     6     5  1993    -9    0        0.2       0.0       0.2       0.0    -999.9
     7     5  1993    -9    0        0.2       0.0       0.2       0.0    -999.9
     8     5  1993    -9    0        0.2       0.0       0.2       0.0    -999.9
     9     5  1993    -9    0        0.2       0.0       0.2       0.0    -999.9
    10     5  1993    -9    0        0.2       0.0       0.2       0.0    -999.9
    11     5  1993    -9    0        0.2       0.0       0.2       0.0    -999.9
    12     5  1993    -9    0        0.2       0.0       0.2       0.0    -999.9
    13     5  1993    -9    0        0.2       0.0       0.2       0.0    -999.9
    14     5  1993    -9    0        0.2       0.0       0.2       0.0    -999.9
    15     5  1993    -9    0        0.2       0.0       0.2       0.0    -999.9
    16     5  1993    -9    0        0.2       0.0       0.2       0.0    -999.9
    17     5  1993    -9    0        5.4       0.0       5.4      22.9    -999.9
    18     5  1993    -9    0        5.3       0.0       5.3       0.0    -999.9
    19     5  1993    -9    0        4.8       0.0       4.8       0.0    -999.9
    20     5  1993    -9    0        0.3       0.0       0.3       0.0    -999.9
    21     5  1993    -9    0        0.3       0.0       0.3       0.0    -999.9
    22     5  1993    -9    0        0.2       0.0       0.2       0.0    -999.9
    23     5  1993    -9    0        1.1       0.0       1.1       0.9    -999.9
    24     5  1993    -9    0        2.3       0.0       2.3       2.2    -999.9
    25     5  1993    -9    0        1.8       0.0       1.8       1.6    -999.9
    26     5  1993    -9    0        0.3       0.0       0.3       0.0    -999.9
    27     5  1993    -9    0        0.3       0.0       0.3       0.0    -999.9
    28     5  1993    -9    0        0.2       0.0       0.2       0.0    -999.9
    29     5  1993    -9    0        0.3       0.0       0.3       0.0    -999.9
    30     5  1993    -9    0        0.3       0.0       0.3       0.0    -999.9
    31     5  1993    -9    0        0.3       0.0       0.3       0.0    -999.9
     1     6  1993    -9    0        0.3       0.0       0.3       0.0    -999.9
     2     6  1993    -9    0        0.3       0.0       0.3       0.0    -999.9
     3     6  1993    -9    0        0.3       0.0       0.3       0.0    -999.9
     4     6  1993    -9    0        0.3       0.0       0.3       0.0    -999.9
     5     6  1993    -9    0        0.3       0.0       0.3       0.0    -999.9
     6     6  1993    -9    0        6.6       0.0       6.6      24.8    -999.9
     7     6  1993    -9    0        6.4       0.0       6.4       0.0    -999.9
     8     6  1993    -9    0        3.8       0.0       3.8       0.0    -999.9
     9     6  1993    -9    0        0.4       0.0       0.4       0.0    -999.9
    10     6  1993    -9    0        0.4       0.0       0.4       0.0    -999.9
    11     6  1993    -9    0        0.5       0.0       0.5       0.1    -999.9
    12     6  1993    -9    0        0.4       0.0       0.4       0.0    -999.9
    13     6  1993    -9    0        0.4       0.0       0.4       0.0    -999.9
    14     6  1993    -9    0        0.3       0.0       0.3       0.0    -999.9
    15     6  1993    -9    0        0.3       0.0       0.3       0.0    -999.9
    16     6  1993    -9    0        0.3       0.0       0.3       0.0    -999.9
    17     6  1993    -9    0        5.9       0.0       5.9       5.9    -999.9
    18     6  1993    -9    0        0.3       0.0       0.3       0.0    -999.9
    19     6  1993    -9    0        0.3       0.0       0.3       0.0    -999.9
    20     6  1993    -9    0        0.3       0.0       0.3       0.0    -999.9
    21     6  1993    -9    0        0.4       0.0       0.4       0.1    -999.9
    22     6  1993    -9    0        6.4       0.0       6.4      18.4    -999.9
    23     6  1993    -9    0        2.0       0.0       2.0       1.0    -999.9
    24     6  1993    -9    0        4.7       0.0       4.7       4.6    -999.9
    25     6  1993    -9    0        1.6       0.0       1.6       0.0    -999.9
    26     6  1993    -9    0        1.9       0.0       1.9       1.0    -999.9
    27     6  1993    -9    0        1.1       0.0       1.1       0.0    -999.9
    28     6  1993    -9    0        0.9       0.0       0.9       0.0    -999.9
    29     6  1993    -9    0        1.0       0.0       1.0       0.3    -999.9
    30     6  1993    -9    0        0.8       0.0       0.8       0.0    -999.9
     1     7  1993    -9    0        0.8       0.0       0.8       0.0    -999.9
     2     7  1993    -9    0        0.7       0.0       0.7       0.0    -999.9
     3     7  1993    -9    0        0.6       0.0       0.6       0.0    -999.9
     4     7  1993    -9    0        0.6       0.0       0.6       0.0    -999.9
     5     7  1993    -9    0        0.5       0.0       0.5       0.0    -999.9
     6     7  1993    -9    0        0.6       0.0       0.6       0.0    -999.9
     7     7  1993    -9    0        0.5       0.0       0.5       0.0    -999.9
     8     7  1993    -9    0        1.0       0.0       1.0       0.8    -999.9
     9     7  1993    -9    0        0.8       0.0       0.8       0.6    -999.9
    10     7  1993    -9    0        2.8       0.0       2.8       2.8    -999.9
    11     7  1993    -9    0        0.3       0.0       0.3       0.0    -999.9
    12     7  1993    -9    0        0.3       0.0       0.3       0.1    -999.9
    13     7  1993    -9    0        0.3       0.0       0.3       0.0    -999.9
    14     7  1993    -9    0        0.5       0.0       0.5       0.2    -999.9
    15     7  1993    -9    0        0.3       0.0       0.3       0.0    -999.9
    16     7  1993    -9    0        0.3       0.0       0.3       0.0    -999.9
    17     7  1993    -9    0        0.3       0.0       0.3       0.0    -999.9
    18     7  1993    -9    0        0.3       0.0       0.3       0.0    -999.9
    19     7  1993    -9    0        0.3       0.0       0.3       0.0    -999.9
    20     7  1993    -9    0        0.3       0.0       0.3       0.0    -999.9
    21     7  1993    -9    0        0.3       0.0       0.3       0.0    -999.9
    22     7  1993    -9    0        0.5       0.0       0.5       0.2    -999.9
    23     7  1993    -9    0        0.2       0.0       0.2       0.0    -999.9
    24     7  1993    -9    0        0.3       0.0       0.3       0.0    -999.9
    25     7  1993    -9    0        2.2       0.0       2.2       2.0    -999.9
    26     7  1993    -9    0        6.6       0.0       6.6       6.6    -999.9
    27     7  1993    -9    0        6.2       0.0       6.2      13.3    -999.9
    28     7  1993    -9    0        3.9       0.0       3.9       0.0    -999.9
    29     7  1993    -9    0        0.3       0.0       0.3       0.0    -999.9
    30     7  1993    -9    0        3.0       0.0       3.0       2.9    -999.9
    31     7  1993    -9    0        0.3       0.0       0.3       0.1    -999.9
     1     8  1993    -9    0        0.6       0.0       0.6       0.4    -999.9
     2     8  1993    -9    0        0.2       0.0       0.2       0.0    -999.9
     3     8  1993    -9    0        0.3       0.0       0.3       0.0    -999.9
     4     8  1993    -9    0        5.5       0.0       5.5      35.8    -999.9
     5     8  1993    -9    0        6.1       0.0       6.1       0.1    -999.9
     6     8  1993    -9    0        5.4       0.0       5.4       0.0    -999.9
     7     8  1993    -9    0        3.0       0.0       3.0       0.0    -999.9
     8     8  1993    -9    0        1.9       0.0       1.9       0.0    -999.9
     9     8  1993    -9    0        1.5       0.0       1.5       0.1    -999.9
    10     8  1993    -9    0        1.3       0.0       1.3       0.1    -999.9
    11     8  1993    -9    0        2.4       0.0       2.4       1.8    -999.9
    12     8  1993    -9    0        1.5       0.0       1.5       0.2    -999.9
    13     8  1993    -9    0        4.6       0.0       4.6       4.3    -999.9
    14     8  1993    -9    0        1.0       0.0       1.0       0.0    -999.9
    15     8  1993    -9    0        1.0       0.0       1.0       0.0    -999.9
    16     8  1993    -9    0        0.8       0.0       0.8       0.0    -999.9
    17     8  1993    -9    0        0.9       0.0       0.9       0.0    -999.9
    18     8  1993    -9    0        0.8       0.0       0.8       0.0    -999.9
    19     8  1993    -9    0        0.6       0.0       0.6       0.0    -999.9
    20     8  1993    -9    0        0.5       0.0       0.5       0.2    -999.9
    21     8  1993    -9    0        0.9       0.0       0.9       0.6    -999.9
    22     8  1993    -9    0        0.3       0.0       0.3       0.0    -999.9
    23     8  1993    -9    0        0.4       0.0       0.4       0.0    -999.9
    24     8  1993    -9    0        0.3       0.0       0.3       0.0    -999.9
    25     8  1993    -9    0        0.3       0.0       0.3       0.0    -999.9
    26     8  1993    -9    0        0.3       0.0       0.3       0.0    -999.9
    27     8  1993    -9    0        4.7       0.0       4.7       4.7    -999.9
    28     8  1993    -9    0        0.4       0.0       0.4       0.1    -999.9
    29     8  1993    -9    0        0.8       0.0       0.8       0.6    -999.9
    30     8  1993    -9    0        1.5       0.0       1.5       1.3    -999.9
    31     8  1993    -9    0        5.8       0.0       5.8       5.8    -999.9
     1     9  1993     1    1        5.2       0.0       5.2      21.3      62.7
     2     9  1993     2    1        4.8       0.0       4.8      48.1       0.0
     3     9  1993     3    1        4.6       0.0       4.6       1.5       0.0
     4     9  1993     4    2        4.9       0.7       5.6       0.3       0.0
     5     9  1993     5    2        5.9       0.8       6.7      13.5       0.0
     6     9  1993     6    2        4.9       0.8       5.7       0.0       0.1
     7     9  1993     7    2        3.4       0.6       4.1       7.2       0.0
     8     9  1993     8    2        4.8       1.1       5.9       0.0       2.3
     9     9  1993     9    2        4.5       1.2       5.7       0.0       5.6
    10     9  1993    10    2        4.5       1.3       5.8       5.6       0.1
    11     9  1993    11    2        3.4       1.2       4.6       2.2       2.2
    12     9  1993    12    2        3.0       1.3       4.3       0.0       4.1
    13     9  1993    13    2        2.8       1.4       4.1       0.2       3.9
    14     9  1993    14    2        2.8       1.7       4.4       0.0       4.4
    15     9  1993    15    2        2.9       2.0       5.0       0.1       4.8
    16     9  1993    16    2        2.4       1.9       4.3       0.0       4.3
    17     9  1993    17    2        3.2       3.2       6.4       0.0       6.4
    18     9  1993    18    2        2.7       3.2       5.9       0.8       5.1
    19     9  1993    19    2        2.0       2.9       4.9       0.1       4.8
    20     9  1993    20    2        1.6       2.9       4.4       0.0       4.4
    21     9  1993    21    2        1.9       4.1       5.9       4.1       1.8
    22     9  1993    22    2        1.6       4.2       5.8       4.6       1.2
    23     9  1993    23    2        1.6       4.9       6.5       0.0       6.5
    24     9  1993    24    2        1.2       4.7       5.9       1.2       4.7
    25     9  1993    25    2        1.0       4.8       5.8       0.0       5.8
    26     9  1993    26    2        1.0       5.1       6.0       0.1       5.9
    27     9  1993    27    2        0.9       5.1       5.9       3.0       2.9
    28     9  1993    28    2        0.8       5.6       6.4       0.0       6.4
    29     9  1993    29    2        0.7       5.3       5.9       0.0       5.9
    30     9  1993    30    2        0.6       5.2       5.8       0.0       5.8
     1    10  1993    31    2        0.5       4.8       5.3       0.6       4.7
     2    10  1993    32    2        0.4       4.9       5.3       0.2       5.1
     3    10  1993    33    2        0.3       3.6       3.9       3.8       0.1
     4    10  1993    34    2        0.2       2.7       2.9      24.8       0.0
     5    10  1993    35    2        0.2       3.3       3.5       0.2       0.0
     6    10  1993    36    2        0.2       3.5       3.7       0.6       0.0
     7    10  1993    37    2        0.2       3.1       3.3      18.6       0.0
     8    10  1993    38    2        0.2       4.0       4.2      36.6       0.0
     9    10  1993    39    2        0.2       5.5       5.7       0.3       0.0
    10    10  1993    40    2        0.2       6.0       6.3       0.1       0.0
    11    10  1993    41    2        0.2       5.4       5.6       0.0       0.0
    12    10  1993    42    2        0.2       5.5       5.7       0.0       0.0
    13    10  1993    43    2        0.2       6.0       6.2       3.1       0.0
    14    10  1993    44    2        0.1       4.6       4.7       0.0       0.0
    15    10  1993    45    2        0.1       3.1       3.2       3.2       0.0
    16    10  1993    46    2        0.1       4.9       5.1       1.3       0.0
    17    10  1993    47    2        0.1       5.5       5.6       0.0       0.0
    18    10  1993    48    2        0.1       5.8       5.9       0.3       3.0
    19    10  1993    49    2        0.1       4.5       4.6       0.0       4.6
    20    10  1993    50    2        0.1       4.4       4.5       0.0       4.5
    21    10  1993    51    2        0.1       3.2       3.3       0.0       3.3
    22    10  1993    52    2        0.1       5.5       5.6       0.0       5.6
    23    10  1993    53    2        0.1       4.8       4.8       0.0       4.8
    24    10  1993    54    2        0.1       4.9       4.9       0.0       4.9
    25    10  1993    55    2        0.1       4.3       4.4       0.0       4.4
    26    10  1993    56    2        0.0       2.9       3.0       9.8       0.0
    27    10  1993    57    2        0.1       4.0       4.0      29.1       0.0
    28    10  1993    58    2        0.1       5.0       5.0       0.0       0.0
    29    10  1993    59    2        0.1       5.8       5.9       0.0       0.0
    30    10  1993    60    2        0.1       5.8       5.9       0.0       0.0
    31    10  1993    61    2        0.1       4.0       4.0       2.2       0.0
     1    11  1993    62    2        0.1       6.4       6.5       0.0       1.2
     2    11  1993    63    2        0.1       6.2       6.3       0.0       6.3
     3    11  1993    64    2        0.1       5.9       6.0       0.0       6.0
     4    11  1993    65    2        0.1       5.7       5.7       0.0       5.7
     5    11  1993    66    3        0.1       5.5       5.6       0.0       5.6
     6    11  1993    67    3        0.1       5.8       5.8       0.0       5.8
     7    11  1993    68    3        0.1       5.7       5.8       0.0       5.8
     8    11  1993    69    3        0.1       5.8       5.9       0.0       5.9
     9    11  1993    70    3        0.1       5.3       5.4       0.0       5.4
    10    11  1993    71    3        0.1       5.8       5.9       0.0       5.9
    11    11  1993    72    3        0.1       5.4       5.5       0.0       5.5
    12    11  1993    73    3        0.1       5.7       5.8       0.0       5.8
    13    11  1993    74    3        0.1       5.7       5.8       0.0       5.8
    14    11  1993    75    3        0.1       5.6       5.7       0.0       5.7
    15    11  1993    76    3        0.1       5.0       5.0       0.0       5.0
    16    11  1993    77    3        0.1       5.3       5.3       0.0       5.3
    17    11  1993    78    3        0.0       3.9       3.9       0.0       3.9
    18    11  1993    79    3        0.1       4.9       5.0       0.0       5.0
    19    11  1993    80    3        0.0       2.4       2.4      14.0       0.0
    20    11  1993    81    3        0.0       3.7       3.7       1.4       0.0
    21    11  1993    82    3        0.1       5.1       5.2       0.2       0.0
    22    11  1993    83    3        0.1       5.6       5.7       0.3       3.4
    23    11  1993    84    3        0.0       3.3       3.4       2.8       0.6
    24    11  1993    85    4        0.1       4.4       4.4       0.0       4.4
    25    11  1993    86    4        0.1       4.2       4.2       0.0       4.2
    26    11  1993    87    4        0.0       2.7       2.7      15.9       0.0
    27    11  1993    88    4        0.0       2.6       2.6      30.1       0.0
    28    11  1993    89    4        0.0       3.5       3.6       6.8       0.0
    29    11  1993    90    4        0.0       2.5       2.5      24.5       0.0
    30    11  1993    91    4        0.1       5.0       5.0       0.8       0.0
     1    12  1993    92    4        0.1       5.2       5.2       0.0       0.0
     2    12  1993    93    4        0.1       4.5       4.6       0.0       0.0
     3    12  1993    94    4        0.1       5.0       5.1       0.0       0.0
     4    12  1993    95    4        0.1       3.4       3.5       7.0       0.0
     5    12  1993    96    4        0.1       2.4       2.4      58.1       0.0
     6    12  1993    97    4        0.1       3.9       4.1       1.4       0.0
     7    12  1993    98    4        0.2       5.6       5.8       0.0       0.0
     8    12  1993    99    4        0.1       2.9       3.0       1.7       0.0
     9    12  1993   100    4        0.2       3.4       3.5      91.8       0.0
    10    12  1993   101    4        0.2       4.2       4.5       0.0       0.0
    11    12  1993   102    4        0.2       3.2       3.4       0.6       0.0
    12    12  1993   103    4        0.3       4.3       4.6       0.0       0.0
    13    12  1993   104    4        0.3       3.9       4.2       0.0       0.0
    14    12  1993   105    4        0.2       2.1       2.3       9.8       0.0
    15    12  1993   106    4        0.4       3.3       3.7       2.8       0.0
    16    12  1993   107    4        0.3       2.7       3.1       0.0       0.0
    17    12  1993   108    4        0.5       3.1       3.6       0.1       0.0
    18    12  1993   109    4        0.4       2.6       3.0       0.1       0.0
    19    12  1993   110    4        0.4       2.3       2.8       4.5       0.0
    20    12  1993   111    4        0.6       2.5       3.1       0.0       0.0
    21    12  1993   112    4        0.6       2.3       2.9       0.0       0.0
    22    12  1993   113    4        0.8       2.5       3.3       0.0       0.0
    23    12  1993   114    4        0.9       2.5       3.3       0.0       0.0
    24    12  1993   115    4        0.9       2.0       2.9       0.0       0.0
    25    12  1993   116    4        1.0       2.0       3.1       0.0       0.0
    26    12  1993   117    4        1.1       1.8       2.9       0.0       0.0
    27    12  1993   118    4        1.1       1.3       2.4       0.0       0.0
    28    12  1993   119    4        1.3       1.1       2.4       0.0       0.0
    29    12  1993   120    4        1.5       0.8       2.3       0.0       0.0

Legend

DAP          : Days after planting
Stage        : 0: before/after planting
Stage        : 1: emergence or transplant recovery
Stage        : 2: vegetative stage
Stage        : 3: flowering
Stage        : 4: yield formation and ripening
E            : Soil evaporation
Trx          : Maximum crop transpiration
ET           : Evapotranspiration (E+Trx)
Rain         : Rainfall
Inet         : Net irrigation requirement
