AquaCrop 4.0 (June 2012) - Output created on (date) : 01/05/2014   at (time) : 09:47:20
Salt balance for soil profile (Total layer: 0.00 - 1.00 m) and soil salinity in root zone (Z)

   Day Month  Year   DAP Stage   SaltIn    SaltOut   SaltUp    SaltTot    SaltZ     Z       ECe    ECsw   StSalt  Zgwt    ECgw
                                 ton/ha    ton/ha    ton/ha    ton/ha    ton/ha     m      dS/m    dS/m      %     m      dS/m
    22     9  1996    -9    0     0.000     0.000     0.000     0.000    -9.000    0.00   -9.00   -9.00      0   -0.09   -9.00
    23     9  1996    -9    0     0.000     0.000     0.000     0.000    -9.000    0.00   -9.00   -9.00      0   -0.09   -9.00
    24     9  1996    -9    0     0.000     0.000     0.000     0.000    -9.000    0.00   -9.00   -9.00      0   -0.09   -9.00
    25     9  1996    -9    0     0.000     0.000     0.000     0.000    -9.000    0.00   -9.00   -9.00      0   -0.09   -9.00
    26     9  1996    -9    0     0.000     0.000     0.000     0.000    -9.000    0.00   -9.00   -9.00      0   -0.09   -9.00
    27     9  1996    -9    0     0.000     0.000     0.000     0.000    -9.000    0.00   -9.00   -9.00      0   -0.09   -9.00
    28     9  1996    -9    0     0.000     0.000     0.000     0.000    -9.000    0.00   -9.00   -9.00      0   -0.09   -9.00
    29     9  1996    -9    0     0.000     0.000     0.000     0.000    -9.000    0.00   -9.00   -9.00      0   -0.09   -9.00
    30     9  1996    -9    0     0.000     0.000     0.000     0.000    -9.000    0.00   -9.00   -9.00      0   -0.09   -9.00
     1    10  1996    -9    0     0.000     0.000     0.000     0.000    -9.000    0.00   -9.00   -9.00      0   -0.09   -9.00
     2    10  1996    -9    0     0.000     0.000     0.000     0.000    -9.000    0.00   -9.00   -9.00      0   -0.09   -9.00
     3    10  1996    -9    0     0.000     0.000     0.000     0.000    -9.000    0.00   -9.00   -9.00      0   -0.09   -9.00
     4    10  1996    -9    0     0.000     0.000     0.000     0.000    -9.000    0.00   -9.00   -9.00      0   -0.09   -9.00
     5    10  1996    -9    0     0.000     0.000     0.000     0.000    -9.000    0.00   -9.00   -9.00      0   -0.09   -9.00
     6    10  1996    -9    0     0.000     0.000     0.000     0.000    -9.000    0.00   -9.00   -9.00      0   -0.09   -9.00
     7    10  1996    -9    0     0.000     0.000     0.000     0.000    -9.000    0.00   -9.00   -9.00      0   -0.09   -9.00
     8    10  1996    -9    0     0.000     0.000     0.000     0.000    -9.000    0.00   -9.00   -9.00      0   -0.09   -9.00
     9    10  1996    -9    0     0.000     0.000     0.000     0.000    -9.000    0.00   -9.00   -9.00      0   -0.09   -9.00
    10    10  1996    -9    0     0.000     0.000     0.000     0.000    -9.000    0.00   -9.00   -9.00      0   -0.09   -9.00
    11    10  1996    -9    0     0.000     0.000     0.000     0.000    -9.000    0.00   -9.00   -9.00      0   -0.09   -9.00
    12    10  1996    -9    0     0.000     0.000     0.000     0.000    -9.000    0.00   -9.00   -9.00      0   -0.09   -9.00
    13    10  1996    -9    0     0.000     0.000     0.000     0.000    -9.000    0.00   -9.00   -9.00      0   -0.09   -9.00
    14    10  1996    -9    0     0.000     0.000     0.000     0.000    -9.000    0.00   -9.00   -9.00      0   -0.09   -9.00
    15    10  1996    -9    0     0.000     0.000     0.000     0.000    -9.000    0.00   -9.00   -9.00      0   -0.09   -9.00
    16    10  1996    -9    0     0.000     0.000     0.000     0.000    -9.000    0.00   -9.00   -9.00      0   -0.09   -9.00
    17    10  1996    -9    0     0.000     0.000     0.000     0.000    -9.000    0.00   -9.00   -9.00      0   -0.09   -9.00
    18    10  1996    -9    0     0.000     0.000     0.000     0.000    -9.000    0.00   -9.00   -9.00      0   -0.09   -9.00
    19    10  1996    -9    0     0.000     0.000     0.000     0.000    -9.000    0.00   -9.00   -9.00      0   -0.09   -9.00
    20    10  1996    -9    0     0.000     0.000     0.000     0.000    -9.000    0.00   -9.00   -9.00      0   -0.09   -9.00
    21    10  1996    -9    0     0.000     0.000     0.000     0.000    -9.000    0.00   -9.00   -9.00      0   -0.09   -9.00
    22    10  1996    -9    0     0.000     0.000     0.000     0.000    -9.000    0.00   -9.00   -9.00      0   -0.09   -9.00
    23    10  1996    -9    0     0.000     0.000     0.000     0.000    -9.000    0.00   -9.00   -9.00      0   -0.09   -9.00
    24    10  1996    -9    0     0.000     0.000     0.000     0.000    -9.000    0.00   -9.00   -9.00      0   -0.09   -9.00
    25    10  1996    -9    0     0.000     0.000     0.000     0.000    -9.000    0.00   -9.00   -9.00      0   -0.09   -9.00
    26    10  1996    -9    0     0.000     0.000     0.000     0.000    -9.000    0.00   -9.00   -9.00      0   -0.09   -9.00
    27    10  1996    -9    0     0.000     0.000     0.000     0.000    -9.000    0.00   -9.00   -9.00      0   -0.09   -9.00
    28    10  1996    -9    0     0.000     0.000     0.000     0.000    -9.000    0.00   -9.00   -9.00      0   -0.09   -9.00
    29    10  1996    -9    0     0.000     0.000     0.000     0.000    -9.000    0.00   -9.00   -9.00      0   -0.09   -9.00
    30    10  1996    -9    0     0.000     0.000     0.000     0.000    -9.000    0.00   -9.00   -9.00      0   -0.09   -9.00
    31    10  1996    -9    0     0.000     0.000     0.000     0.000    -9.000    0.00   -9.00   -9.00      0   -0.09   -9.00
     1    11  1996    -9    0     0.000     0.000     0.000     0.000    -9.000    0.00   -9.00   -9.00      0   -0.09   -9.00
     2    11  1996    -9    0     0.000     0.000     0.000     0.000    -9.000    0.00   -9.00   -9.00      0   -0.09   -9.00
     3    11  1996    -9    0     0.000     0.000     0.000     0.000    -9.000    0.00   -9.00   -9.00      0   -0.09   -9.00
     4    11  1996    -9    0     0.000     0.000     0.000     0.000    -9.000    0.00   -9.00   -9.00      0   -0.09   -9.00
     5    11  1996    -9    0     0.000     0.000     0.000     0.000    -9.000    0.00   -9.00   -9.00      0   -0.09   -9.00
     6    11  1996    -9    0     0.000     0.000     0.000     0.000    -9.000    0.00   -9.00   -9.00      0   -0.09   -9.00
     7    11  1996    -9    0     0.000     0.000     0.000     0.000    -9.000    0.00   -9.00   -9.00      0   -0.09   -9.00
     8    11  1996    -9    0     0.000     0.000     0.000     0.000    -9.000    0.00   -9.00   -9.00      0   -0.09   -9.00
     9    11  1996    -9    0     0.000     0.000     0.000     0.000    -9.000    0.00   -9.00   -9.00      0   -0.09   -9.00
    10    11  1996    -9    0     0.000     0.000     0.000     0.000    -9.000    0.00   -9.00   -9.00      0   -0.09   -9.00
    11    11  1996    -9    0     0.000     0.000     0.000     0.000    -9.000    0.00   -9.00   -9.00      0   -0.09   -9.00
    12    11  1996    -9    0     0.000     0.000     0.000     0.000    -9.000    0.00   -9.00   -9.00      0   -0.09   -9.00
    13    11  1996    -9    0     0.000     0.000     0.000     0.000    -9.000    0.00   -9.00   -9.00      0   -0.09   -9.00
    14    11  1996    -9    0     0.000     0.000     0.000     0.000    -9.000    0.00   -9.00   -9.00      0   -0.09   -9.00
    15    11  1996    -9    0     0.000     0.000     0.000     0.000    -9.000    0.00   -9.00   -9.00      0   -0.09   -9.00
    16    11  1996    -9    0     0.000     0.000     0.000     0.000    -9.000    0.00   -9.00   -9.00      0   -0.09   -9.00
    17    11  1996    -9    0     0.000     0.000     0.000     0.000    -9.000    0.00   -9.00   -9.00      0   -0.09   -9.00
    18    11  1996    -9    0     0.000     0.000     0.000     0.000    -9.000    0.00   -9.00   -9.00      0   -0.09   -9.00
    19    11  1996    -9    0     0.000     0.000     0.000     0.000    -9.000    0.00   -9.00   -9.00      0   -0.09   -9.00
    20    11  1996    -9    0     0.000     0.000     0.000     0.000    -9.000    0.00   -9.00   -9.00      0   -0.09   -9.00
    21    11  1996    -9    0     0.000     0.000     0.000     0.000    -9.000    0.00   -9.00   -9.00      0   -0.09   -9.00
    22    11  1996    -9    0     0.000     0.000     0.000     0.000    -9.000    0.00   -9.00   -9.00      0   -0.09   -9.00
    23    11  1996    -9    0     0.000     0.000     0.000     0.000    -9.000    0.00   -9.00   -9.00      0   -0.09   -9.00
    24    11  1996    -9    0     0.000     0.000     0.000     0.000    -9.000    0.00   -9.00   -9.00      0   -0.09   -9.00
    25    11  1996    -9    0     0.000     0.000     0.000     0.000    -9.000    0.00   -9.00   -9.00      0   -0.09   -9.00
    26    11  1996    -9    0     0.000     0.000     0.000     0.000    -9.000    0.00   -9.00   -9.00      0   -0.09   -9.00
    27    11  1996    -9    0     0.000     0.000     0.000     0.000    -9.000    0.00   -9.00   -9.00      0   -0.09   -9.00
    28    11  1996    -9    0     0.000     0.000     0.000     0.000    -9.000    0.00   -9.00   -9.00      0   -0.09   -9.00
    29    11  1996    -9    0     0.000     0.000     0.000     0.000    -9.000    0.00   -9.00   -9.00      0   -0.09   -9.00
    30    11  1996    -9    0     0.000     0.000     0.000     0.000    -9.000    0.00   -9.00   -9.00      0   -0.09   -9.00
     1    12  1996    -9    0     0.000     0.000     0.000     0.000    -9.000    0.00   -9.00   -9.00      0   -0.09   -9.00
     2    12  1996    -9    0     0.000     0.000     0.000     0.000    -9.000    0.00   -9.00   -9.00      0   -0.09   -9.00
     3    12  1996    -9    0     0.000     0.000     0.000     0.000    -9.000    0.00   -9.00   -9.00      0   -0.09   -9.00
     4    12  1996     1    1     0.000     0.000     0.000     0.000     0.000    0.30    0.00    0.00      0   -0.09   -9.00
     5    12  1996     2    1     0.000     0.000     0.000     0.000     0.000    0.30    0.00    0.00      0   -0.09   -9.00
     6    12  1996     3    1     0.000     0.000     0.000     0.000     0.000    0.30    0.00    0.00      0   -0.09   -9.00
     7    12  1996     4    1     0.000     0.000     0.000     0.000     0.000    0.30    0.00    0.00      0   -0.09   -9.00
     8    12  1996     5    1     0.000     0.000     0.000     0.000     0.000    0.30    0.00    0.00      0   -0.09   -9.00
     9    12  1996     6    1     0.000     0.000     0.000     0.000     0.000    0.30    0.00    0.00      0   -0.09   -9.00
    10    12  1996     7    1     0.000     0.000     0.000     0.000     0.000    0.30    0.00    0.00      0   -0.09   -9.00
    11    12  1996     8    1     0.000     0.000     0.000     0.000     0.000    0.30    0.00    0.00      0   -0.09   -9.00
    12    12  1996     9    1     0.000     0.000     0.000     0.000     0.000    0.30    0.00    0.00      0   -0.09   -9.00
    13    12  1996    10    1     0.000     0.000     0.000     0.000     0.000    0.30    0.00    0.00      0   -0.09   -9.00
    14    12  1996    11    1     0.000     0.000     0.000     0.000     0.000    0.30    0.00    0.00      0   -0.09   -9.00
    15    12  1996    12    1     0.000     0.000     0.000     0.000     0.000    0.30    0.00    0.00      0   -0.09   -9.00
    16    12  1996    13    1     0.000     0.000     0.000     0.000     0.000    0.30    0.00    0.00      0   -0.09   -9.00
    17    12  1996    14    1     0.000     0.000     0.000     0.000     0.000    0.30    0.00    0.00      0   -0.09   -9.00
    18    12  1996    15    1     0.000     0.000     0.000     0.000     0.000    0.32    0.00    0.00      0   -0.09   -9.00
    19    12  1996    16    1     0.000     0.000     0.000     0.000     0.000    0.33    0.00    0.00      0   -0.09   -9.00
    20    12  1996    17    1     0.000     0.000     0.000     0.000     0.000    0.37    0.00    0.00      0   -0.09   -9.00
    21    12  1996    18    1     0.000     0.000     0.000     0.000     0.000    0.40    0.00    0.00      0   -0.09   -9.00
    22    12  1996    19    1     0.000     0.000     0.000     0.000     0.000    0.43    0.00    0.00      0   -0.09   -9.00
    23    12  1996    20    1     0.000     0.000     0.000     0.000     0.000    0.45    0.00    0.00      0   -0.09   -9.00
    24    12  1996    21    1     0.000     0.000     0.000     0.000     0.000    0.48    0.00    0.00      0   -0.09   -9.00
    25    12  1996    22    1     0.000     0.000     0.000     0.000     0.000    0.49    0.00    0.00      0   -0.09   -9.00
    26    12  1996    23    2     0.000     0.000     0.000     0.000     0.000    0.49    0.00    0.00      0   -0.09   -9.00
    27    12  1996    24    2     0.000     0.000     0.000     0.000     0.000    0.49    0.00    0.00      0   -0.09   -9.00
    28    12  1996    25    2     0.000     0.000     0.000     0.000     0.000    0.49    0.00    0.00      0   -0.09   -9.00
    29    12  1996    26    2     0.000     0.000     0.000     0.000     0.000    0.49    0.00    0.00      0   -0.09   -9.00
    30    12  1996    27    2     0.000     0.000     0.000     0.000     0.000    0.49    0.00    0.00      0   -0.09   -9.00
    31    12  1996    28    2     0.000     0.000     0.000     0.000     0.000    0.49    0.00    0.00      0   -0.09   -9.00
     1     1  1997    29    2     0.000     0.000     0.000     0.000     0.000    0.51    0.00    0.00      0   -0.09   -9.00
     2     1  1997    30    2     0.000     0.000     0.000     0.000     0.000    0.53    0.00    0.00      0   -0.09   -9.00
     3     1  1997    31    2     0.000     0.000     0.000     0.000     0.000    0.56    0.00    0.00      0   -0.09   -9.00
     4     1  1997    32    2     0.000     0.000     0.000     0.000     0.000    0.57    0.00    0.00      0   -0.09   -9.00
     5     1  1997    33    2     0.000     0.000     0.000     0.000     0.000    0.58    0.00    0.00      0   -0.09   -9.00
     6     1  1997    34    2     0.000     0.000     0.000     0.000     0.000    0.59    0.00    0.00      0   -0.09   -9.00
     7     1  1997    35    2     0.000     0.000     0.000     0.000     0.000    0.60    0.00    0.00      0   -0.09   -9.00
     8     1  1997    36    2     0.000     0.000     0.000     0.000     0.000    0.61    0.00    0.00      0   -0.09   -9.00
     9     1  1997    37    2     0.000     0.000     0.000     0.000     0.000    0.63    0.00    0.00      0   -0.09   -9.00
    10     1  1997    38    2     0.000     0.000     0.000     0.000     0.000    0.64    0.00    0.00      0   -0.09   -9.00
    11     1  1997    39    2     0.000     0.000     0.000     0.000     0.000    0.65    0.00    0.00      0   -0.09   -9.00
    12     1  1997    40    2     0.000     0.000     0.000     0.000     0.000    0.66    0.00    0.00      0   -0.09   -9.00
    13     1  1997    41    2     0.000     0.000     0.000     0.000     0.000    0.67    0.00    0.00      0   -0.09   -9.00
    14     1  1997    42    2     0.000     0.000     0.000     0.000     0.000    0.68    0.00    0.00      0   -0.09   -9.00
    15     1  1997    43    2     0.000     0.000     0.000     0.000     0.000    0.69    0.00    0.00      0   -0.09   -9.00
    16     1  1997    44    2     0.000     0.000     0.000     0.000     0.000    0.70    0.00    0.00      0   -0.09   -9.00
    17     1  1997    45    2     0.000     0.000     0.000     0.000     0.000    0.71    0.00    0.00      0   -0.09   -9.00
    18     1  1997    46    2     0.000     0.000     0.000     0.000     0.000    0.71    0.00    0.00      0   -0.09   -9.00
    19     1  1997    47    2     0.000     0.000     0.000     0.000     0.000    0.71    0.00    0.00      0   -0.09   -9.00
    20     1  1997    48    2     0.000     0.000     0.000     0.000     0.000    0.73    0.00    0.00      0   -0.09   -9.00
    21     1  1997    49    2     0.000     0.000     0.000     0.000     0.000    0.75    0.00    0.00      0   -0.09   -9.00
    22     1  1997    50    2     0.000     0.000     0.000     0.000     0.000    0.76    0.00    0.00      0   -0.09   -9.00
    23     1  1997    51    2     0.000     0.000     0.000     0.000     0.000    0.78    0.00    0.00      0   -0.09   -9.00
    24     1  1997    52    2     0.000     0.000     0.000     0.000     0.000    0.79    0.00    0.00      0   -0.09   -9.00
    25     1  1997    53    2     0.000     0.000     0.000     0.000     0.000    0.80    0.00    0.00      0   -0.09   -9.00
    26     1  1997    54    2     0.000     0.000     0.000     0.000     0.000    0.81    0.00    0.00      0   -0.09   -9.00
    27     1  1997    55    2     0.000     0.000     0.000     0.000     0.000    0.82    0.00    0.00      0   -0.09   -9.00
    28     1  1997    56    2     0.000     0.000     0.000     0.000     0.000    0.84    0.00    0.00      0   -0.09   -9.00
    29     1  1997    57    2     0.000     0.000     0.000     0.000     0.000    0.85    0.00    0.00      0   -0.09   -9.00
    30     1  1997    58    2     0.000     0.000     0.000     0.000     0.000    0.86    0.00    0.00      0   -0.09   -9.00
    31     1  1997    59    2     0.000     0.000     0.000     0.000     0.000    0.86    0.00    0.00      0   -0.09   -9.00
     1     2  1997    60    2     0.000     0.000     0.000     0.000     0.000    0.87    0.00    0.00      0   -0.09   -9.00
     2     2  1997    61    2     0.000     0.000     0.000     0.000     0.000    0.88    0.00    0.00      0   -0.09   -9.00
     3     2  1997    62    2     0.000     0.000     0.000     0.000     0.000    0.88    0.00    0.00      0   -0.09   -9.00
     4     2  1997    63    2     0.000     0.000     0.000     0.000     0.000    0.89    0.00    0.00      0   -0.09   -9.00
     5     2  1997    64    2     0.000     0.000     0.000     0.000     0.000    0.90    0.00    0.00      0   -0.09   -9.00
     6     2  1997    65    2     0.000     0.000     0.000     0.000     0.000    0.91    0.00    0.00      0   -0.09   -9.00
     7     2  1997    66    2     0.000     0.000     0.000     0.000     0.000    0.91    0.00    0.00      0   -0.09   -9.00
     8     2  1997    67    2     0.000     0.000     0.000     0.000     0.000    0.92    0.00    0.00      0   -0.09   -9.00
     9     2  1997    68    2     0.000     0.000     0.000     0.000     0.000    0.93    0.00    0.00      0   -0.09   -9.00
    10     2  1997    69    2     0.000     0.000     0.000     0.000     0.000    0.94    0.00    0.00      0   -0.09   -9.00
    11     2  1997    70    2     0.000     0.000     0.000     0.000     0.000    0.95    0.00    0.00      0   -0.09   -9.00
    12     2  1997    71    2     0.000     0.000     0.000     0.000     0.000    0.96    0.00    0.00      0   -0.09   -9.00
    13     2  1997    72    2     0.000     0.000     0.000     0.000     0.000    0.97    0.00    0.00      0   -0.09   -9.00
    14     2  1997    73    2     0.000     0.000     0.000     0.000     0.000    0.98    0.00    0.00      0   -0.09   -9.00
    15     2  1997    74    2     0.000     0.000     0.000     0.000     0.000    0.99    0.00    0.00      0   -0.09   -9.00
    16     2  1997    75    2     0.000     0.000     0.000     0.000     0.000    1.00    0.00    0.00      0   -0.09   -9.00
    17     2  1997    76    2     0.000     0.000     0.000     0.000     0.000    1.00    0.00    0.00      0   -0.09   -9.00
    18     2  1997    77    2     0.000     0.000     0.000     0.000     0.000    1.00    0.00    0.00      0   -0.09   -9.00
    19     2  1997    78    2     0.000     0.000     0.000     0.000     0.000    1.00    0.00    0.00      0   -0.09   -9.00
    20     2  1997    79    2     0.000     0.000     0.000     0.000     0.000    1.00    0.00    0.00      0   -0.09   -9.00
    21     2  1997    80    2     0.000     0.000     0.000     0.000     0.000    1.00    0.00    0.00      0   -0.09   -9.00
    22     2  1997    81    2     0.000     0.000     0.000     0.000     0.000    1.00    0.00    0.00      0   -0.09   -9.00
    23     2  1997    82    2     0.000     0.000     0.000     0.000     0.000    1.00    0.00    0.00      0   -0.09   -9.00
    24     2  1997    83    2     0.000     0.000     0.000     0.000     0.000    1.00    0.00    0.00      0   -0.09   -9.00
    25     2  1997    84    2     0.000     0.000     0.000     0.000     0.000    1.00    0.00    0.00      0   -0.09   -9.00
    26     2  1997    85    2     0.000     0.000     0.000     0.000     0.000    1.00    0.00    0.00      0   -0.09   -9.00
    27     2  1997    86    2     0.000     0.000     0.000     0.000     0.000    1.00    0.00    0.00      0   -0.09   -9.00
    28     2  1997    87    2     0.000     0.000     0.000     0.000     0.000    1.00    0.00    0.00      0   -0.09   -9.00
     1     3  1997    88    2     0.000     0.000     0.000     0.000     0.000    1.00    0.00    0.00      0   -0.09   -9.00
     2     3  1997    89    2     0.000     0.000     0.000     0.000     0.000    1.00    0.00    0.00      0   -0.09   -9.00
     3     3  1997    90    2     0.000     0.000     0.000     0.000     0.000    1.00    0.00    0.00      0   -0.09   -9.00
     4     3  1997    91    2     0.000     0.000     0.000     0.000     0.000    1.00    0.00    0.00      0   -0.09   -9.00
     5     3  1997    92    2     0.000     0.000     0.000     0.000     0.000    1.00    0.00    0.00      0   -0.09   -9.00
     6     3  1997    93    2     0.000     0.000     0.000     0.000     0.000    1.00    0.00    0.00      0   -0.09   -9.00
     7     3  1997    94    2     0.000     0.000     0.000     0.000     0.000    1.00    0.00    0.00      0   -0.09   -9.00
     8     3  1997    95    2     0.000     0.000     0.000     0.000     0.000    1.00    0.00    0.00      0   -0.09   -9.00
     9     3  1997    96    2     0.000     0.000     0.000     0.000     0.000    1.00    0.00    0.00      0   -0.09   -9.00
    10     3  1997    97    2     0.000     0.000     0.000     0.000     0.000    1.00    0.00    0.00      0   -0.09   -9.00
    11     3  1997    98    2     0.000     0.000     0.000     0.000     0.000    1.00    0.00    0.00      0   -0.09   -9.00
    12     3  1997    99    2     0.000     0.000     0.000     0.000     0.000    1.00    0.00    0.00      0   -0.09   -9.00
    13     3  1997   100    2     0.000     0.000     0.000     0.000     0.000    1.00    0.00    0.00      0   -0.09   -9.00
    14     3  1997   101    2     0.000     0.000     0.000     0.000     0.000    1.00    0.00    0.00      0   -0.09   -9.00
    15     3  1997   102    2     0.000     0.000     0.000     0.000     0.000    1.00    0.00    0.00      0   -0.09   -9.00
    16     3  1997   103    2     0.000     0.000     0.000     0.000     0.000    1.00    0.00    0.00      0   -0.09   -9.00
    17     3  1997   104    2     0.000     0.000     0.000     0.000     0.000    1.00    0.00    0.00      0   -0.09   -9.00
    18     3  1997   105    2     0.000     0.000     0.000     0.000     0.000    1.00    0.00    0.00      0   -0.09   -9.00
    19     3  1997   106    2     0.000     0.000     0.000     0.000     0.000    1.00    0.00    0.00      0   -0.09   -9.00
    20     3  1997   107    2     0.000     0.000     0.000     0.000     0.000    1.00    0.00    0.00      0   -0.09   -9.00
    21     3  1997   108    2     0.000     0.000     0.000     0.000     0.000    1.00    0.00    0.00      0   -0.09   -9.00
    22     3  1997   109    2     0.000     0.000     0.000     0.000     0.000    1.00    0.00    0.00      0   -0.09   -9.00
    23     3  1997   110    2     0.000     0.000     0.000     0.000     0.000    1.00    0.00    0.00      0   -0.09   -9.00
    24     3  1997   111    2     0.000     0.000     0.000     0.000     0.000    1.00    0.00    0.00      0   -0.09   -9.00
    25     3  1997   112    2     0.000     0.000     0.000     0.000     0.000    1.00    0.00    0.00      0   -0.09   -9.00
    26     3  1997   113    2     0.000     0.000     0.000     0.000     0.000    1.00    0.00    0.00      0   -0.09   -9.00
    27     3  1997   114    2     0.000     0.000     0.000     0.000     0.000    1.00    0.00    0.00      0   -0.09   -9.00
    28     3  1997   115    2     0.000     0.000     0.000     0.000     0.000    1.00    0.00    0.00      0   -0.09   -9.00
    29     3  1997   116    2     0.000     0.000     0.000     0.000     0.000    1.00    0.00    0.00      0   -0.09   -9.00
    30     3  1997   117    2     0.000     0.000     0.000     0.000     0.000    1.00    0.00    0.00      0   -0.09   -9.00
    31     3  1997   118    2     0.000     0.000     0.000     0.000     0.000    1.00    0.00    0.00      0   -0.09   -9.00
     1     4  1997   119    2     0.000     0.000     0.000     0.000     0.000    1.00    0.00    0.00      0   -0.09   -9.00
     2     4  1997   120    2     0.000     0.000     0.000     0.000     0.000    1.00    0.00    0.00      0   -0.09   -9.00
     3     4  1997   121    2     0.000     0.000     0.000     0.000     0.000    1.00    0.00    0.00      0   -0.09   -9.00
     4     4  1997   122    2     0.000     0.000     0.000     0.000     0.000    1.00    0.00    0.00      0   -0.09   -9.00
     5     4  1997   123    2     0.000     0.000     0.000     0.000     0.000    1.00    0.00    0.00      0   -0.09   -9.00
     6     4  1997   124    2     0.000     0.000     0.000     0.000     0.000    1.00    0.00    0.00      0   -0.09   -9.00
     7     4  1997   125    2     0.000     0.000     0.000     0.000     0.000    1.00    0.00    0.00      0   -0.09   -9.00
     8     4  1997   126    2     0.000     0.000     0.000     0.000     0.000    1.00    0.00    0.00      0   -0.09   -9.00
     9     4  1997   127    2     0.000     0.000     0.000     0.000     0.000    1.00    0.00    0.00      0   -0.09   -9.00
    10     4  1997   128    2     0.000     0.000     0.000     0.000     0.000    1.00    0.00    0.00      0   -0.09   -9.00
    11     4  1997   129    2     0.000     0.000     0.000     0.000     0.000    1.00    0.00    0.00      0   -0.09   -9.00
    12     4  1997   130    2     0.000     0.000     0.000     0.000     0.000    1.00    0.00    0.00      0   -0.09   -9.00
    13     4  1997   131    2     0.000     0.000     0.000     0.000     0.000    1.00    0.00    0.00      0   -0.09   -9.00
    14     4  1997   132    2     0.000     0.000     0.000     0.000     0.000    1.00    0.00    0.00      0   -0.09   -9.00
    15     4  1997   133    2     0.000     0.000     0.000     0.000     0.000    1.00    0.00    0.00      0   -0.09   -9.00
    16     4  1997   134    2     0.000     0.000     0.000     0.000     0.000    1.00    0.00    0.00      0   -0.09   -9.00
    17     4  1997   135    2     0.000     0.000     0.000     0.000     0.000    1.00    0.00    0.00      0   -0.09   -9.00
    18     4  1997   136    2     0.000     0.000     0.000     0.000     0.000    1.00    0.00    0.00      0   -0.09   -9.00
    19     4  1997   137    2     0.000     0.000     0.000     0.000     0.000    1.00    0.00    0.00      0   -0.09   -9.00
    20     4  1997   138    2     0.000     0.000     0.000     0.000     0.000    1.00    0.00    0.00      0   -0.09   -9.00
    21     4  1997   139    2     0.000     0.000     0.000     0.000     0.000    1.00    0.00    0.00      0   -0.09   -9.00
    22     4  1997   140    2     0.000     0.000     0.000     0.000     0.000    1.00    0.00    0.00      0   -0.09   -9.00
    23     4  1997   141    2     0.000     0.000     0.000     0.000     0.000    1.00    0.00    0.00      0   -0.09   -9.00
    24     4  1997   142    2     0.000     0.000     0.000     0.000     0.000    1.00    0.00    0.00      0   -0.09   -9.00
    25     4  1997   143    2     0.000     0.000     0.000     0.000     0.000    1.00    0.00    0.00      0   -0.09   -9.00
    26     4  1997   144    2     0.000     0.000     0.000     0.000     0.000    1.00    0.00    0.00      0   -0.09   -9.00
    27     4  1997   145    2     0.000     0.000     0.000     0.000     0.000    1.00    0.00    0.00      0   -0.09   -9.00
    28     4  1997   146    2     0.000     0.000     0.000     0.000     0.000    1.00    0.00    0.00      0   -0.09   -9.00
    29     4  1997   147    2     0.000     0.000     0.000     0.000     0.000    1.00    0.00    0.00      0   -0.09   -9.00
    30     4  1997   148    2     0.000     0.000     0.000     0.000     0.000    1.00    0.00    0.00      0   -0.09   -9.00
     1     5  1997   149    2     0.000     0.000     0.000     0.000     0.000    1.00    0.00    0.00      0   -0.09   -9.00
     2     5  1997   150    2     0.000     0.000     0.000     0.000     0.000    1.00    0.00    0.00      0   -0.09   -9.00
     3     5  1997   151    2     0.000     0.000     0.000     0.000     0.000    1.00    0.00    0.00      0   -0.09   -9.00
     4     5  1997   152    2     0.000     0.000     0.000     0.000     0.000    1.00    0.00    0.00      0   -0.09   -9.00
     5     5  1997   153    2     0.000     0.000     0.000     0.000     0.000    1.00    0.00    0.00      0   -0.09   -9.00
     6     5  1997   154    2     0.000     0.000     0.000     0.000     0.000    1.00    0.00    0.00      0   -0.09   -9.00
     7     5  1997   155    2     0.000     0.000     0.000     0.000     0.000    1.00    0.00    0.00      0   -0.09   -9.00
     8     5  1997   156    2     0.000     0.000     0.000     0.000     0.000    1.00    0.00    0.00      0   -0.09   -9.00
     9     5  1997   157    2     0.000     0.000     0.000     0.000     0.000    1.00    0.00    0.00      0   -0.09   -9.00
    10     5  1997   158    2     0.000     0.000     0.000     0.000     0.000    1.00    0.00    0.00      0   -0.09   -9.00
    11     5  1997   159    2     0.000     0.000     0.000     0.000     0.000    1.00    0.00    0.00      0   -0.09   -9.00
    12     5  1997   160    2     0.000     0.000     0.000     0.000     0.000    1.00    0.00    0.00      0   -0.09   -9.00
    13     5  1997   161    2     0.000     0.000     0.000     0.000     0.000    1.00    0.00    0.00      0   -0.09   -9.00
    14     5  1997   162    2     0.000     0.000     0.000     0.000     0.000    1.00    0.00    0.00      0   -0.09   -9.00
    15     5  1997   163    2     0.000     0.000     0.000     0.000     0.000    1.00    0.00    0.00      0   -0.09   -9.00
    16     5  1997   164    2     0.000     0.000     0.000     0.000     0.000    1.00    0.00    0.00      0   -0.09   -9.00
    17     5  1997   165    2     0.000     0.000     0.000     0.000     0.000    1.00    0.00    0.00      0   -0.09   -9.00
    18     5  1997   166    2     0.000     0.000     0.000     0.000     0.000    1.00    0.00    0.00      0   -0.09   -9.00
    19     5  1997   167    2     0.000     0.000     0.000     0.000     0.000    1.00    0.00    0.00      0   -0.09   -9.00
    20     5  1997   168    3     0.000     0.000     0.000     0.000     0.000    1.00    0.00    0.00      0   -0.09   -9.00
    21     5  1997   169    3     0.000     0.000     0.000     0.000     0.000    1.00    0.00    0.00      0   -0.09   -9.00
    22     5  1997   170    3     0.000     0.000     0.000     0.000     0.000    1.00    0.00    0.00      0   -0.09   -9.00
    23     5  1997   171    3     0.000     0.000     0.000     0.000     0.000    1.00    0.00    0.00      0   -0.09   -9.00
    24     5  1997   172    3     0.000     0.000     0.000     0.000     0.000    1.00    0.00    0.00      0   -0.09   -9.00
    25     5  1997   173    3     0.000     0.000     0.000     0.000     0.000    1.00    0.00    0.00      0   -0.09   -9.00
    26     5  1997   174    3     0.000     0.000     0.000     0.000     0.000    1.00    0.00    0.00      0   -0.09   -9.00
    27     5  1997   175    3     0.000     0.000     0.000     0.000     0.000    1.00    0.00    0.00      0   -0.09   -9.00
    28     5  1997   176    3     0.000     0.000     0.000     0.000     0.000    1.00    0.00    0.00      0   -0.09   -9.00
    29     5  1997   177    3     0.000     0.000     0.000     0.000     0.000    1.00    0.00    0.00      0   -0.09   -9.00
    30     5  1997   178    3     0.000     0.000     0.000     0.000     0.000    1.00    0.00    0.00      0   -0.09   -9.00
    31     5  1997   179    3     0.000     0.000     0.000     0.000     0.000    1.00    0.00    0.00      0   -0.09   -9.00
     1     6  1997   180    3     0.000     0.000     0.000     0.000     0.000    1.00    0.00    0.00      0   -0.09   -9.00
     2     6  1997   181    3     0.000     0.000     0.000     0.000     0.000    1.00    0.00    0.00      0   -0.09   -9.00
     3     6  1997   182    4     0.000     0.000     0.000     0.000     0.000    1.00    0.00    0.00      0   -0.09   -9.00
     4     6  1997   183    4     0.000     0.000     0.000     0.000     0.000    1.00    0.00    0.00      0   -0.09   -9.00
     5     6  1997   184    4     0.000     0.000     0.000     0.000     0.000    1.00    0.00    0.00      0   -0.09   -9.00
     6     6  1997   185    4     0.000     0.000     0.000     0.000     0.000    1.00    0.00    0.00      0   -0.09   -9.00
     7     6  1997   186    4     0.000     0.000     0.000     0.000     0.000    1.00    0.00    0.00      0   -0.09   -9.00
     8     6  1997   187    4     0.000     0.000     0.000     0.000     0.000    1.00    0.00    0.00      0   -0.09   -9.00
     9     6  1997   188    4     0.000     0.000     0.000     0.000     0.000    1.00    0.00    0.00      0   -0.09   -9.00
    10     6  1997   189    4     0.000     0.000     0.000     0.000     0.000    1.00    0.00    0.00      0   -0.09   -9.00
    11     6  1997   190    4     0.000     0.000     0.000     0.000     0.000    1.00    0.00    0.00      0   -0.09   -9.00
    12     6  1997   191    4     0.000     0.000     0.000     0.000     0.000    1.00    0.00    0.00      0   -0.09   -9.00
    13     6  1997   192    4     0.000     0.000     0.000     0.000     0.000    1.00    0.00    0.00      0   -0.09   -9.00
    14     6  1997   193    4     0.000     0.000     0.000     0.000     0.000    1.00    0.00    0.00      0   -0.09   -9.00
    15     6  1997   194    4     0.000     0.000     0.000     0.000     0.000    1.00    0.00    0.00      0   -0.09   -9.00
    16     6  1997   195    4     0.000     0.000     0.000     0.000     0.000    1.00    0.00    0.00      0   -0.09   -9.00
    17     6  1997   196    4     0.000     0.000     0.000     0.000     0.000    1.00    0.00    0.00      0   -0.09   -9.00
    18     6  1997   197    4     0.000     0.000     0.000     0.000     0.000    1.00    0.00    0.00      0   -0.09   -9.00
    19     6  1997   198    4     0.000     0.000     0.000     0.000     0.000    1.00    0.00    0.00      0   -0.09   -9.00
    20     6  1997   199    4     0.000     0.000     0.000     0.000     0.000    1.00    0.00    0.00      0   -0.09   -9.00
    21     6  1997   200    4     0.000     0.000     0.000     0.000     0.000    1.00    0.00    0.00      0   -0.09   -9.00
    22     6  1997   201    4     0.000     0.000     0.000     0.000     0.000    1.00    0.00    0.00      0   -0.09   -9.00
    23     6  1997   202    4     0.000     0.000     0.000     0.000     0.000    1.00    0.00    0.00      0   -0.09   -9.00
    24     6  1997   203    4     0.000     0.000     0.000     0.000     0.000    1.00    0.00    0.00      0   -0.09   -9.00
    25     6  1997   204    4     0.000     0.000     0.000     0.000     0.000    1.00    0.00    0.00      0   -0.09   -9.00
    26     6  1997   205    4     0.000     0.000     0.000     0.000     0.000    1.00    0.00    0.00      0   -0.09   -9.00
    27     6  1997   206    4     0.000     0.000     0.000     0.000     0.000    1.00    0.00    0.00      0   -0.09   -9.00
    28     6  1997   207    4     0.000     0.000     0.000     0.000     0.000    1.00    0.00    0.00      0   -0.09   -9.00
    29     6  1997   208    4     0.000     0.000     0.000     0.000     0.000    1.00    0.00    0.00      0   -0.09   -9.00
    30     6  1997   209    4     0.000     0.000     0.000     0.000     0.000    1.00    0.00    0.00      0   -0.09   -9.00
     1     7  1997   210    4     0.000     0.000     0.000     0.000     0.000    1.00    0.00    0.00      0   -0.09   -9.00
     2     7  1997   211    4     0.000     0.000     0.000     0.000     0.000    1.00    0.00    0.00      0   -0.09   -9.00
     3     7  1997   212    4     0.000     0.000     0.000     0.000     0.000    1.00    0.00    0.00      0   -0.09   -9.00
     4     7  1997   213    4     0.000     0.000     0.000     0.000     0.000    1.00    0.00    0.00      0   -0.09   -9.00
     5     7  1997   214    4     0.000     0.000     0.000     0.000     0.000    1.00    0.00    0.00      0   -0.09   -9.00
     6     7  1997   215    4     0.000     0.000     0.000     0.000     0.000    1.00    0.00    0.00      0   -0.09   -9.00
     7     7  1997   216    4     0.000     0.000     0.000     0.000     0.000    1.00    0.00    0.00      0   -0.09   -9.00
     8     7  1997   217    4     0.000     0.000     0.000     0.000     0.000    1.00    0.00    0.00      0   -0.09   -9.00
     9     7  1997   218    4     0.000     0.000     0.000     0.000     0.000    1.00    0.00    0.00      0   -0.09   -9.00
    10     7  1997   219    4     0.000     0.000     0.000     0.000     0.000    1.00    0.00    0.00      0   -0.09   -9.00
    11     7  1997   220    4     0.000     0.000     0.000     0.000     0.000    1.00    0.00    0.00      0   -0.09   -9.00
    12     7  1997   221    4     0.000     0.000     0.000     0.000     0.000    1.00    0.00    0.00      0   -0.09   -9.00
    13     7  1997   222    4     0.000     0.000     0.000     0.000     0.000    1.00    0.00    0.00      0   -0.09   -9.00
    14     7  1997   223    4     0.000     0.000     0.000     0.000     0.000    1.00    0.00    0.00      0   -0.09   -9.00
    15     7  1997   224    4     0.000     0.000     0.000     0.000     0.000    1.00    0.00    0.00      0   -0.09   -9.00
    16     7  1997   225    4     0.000     0.000     0.000     0.000     0.000    1.00    0.00    0.00      0   -0.09   -9.00
    17     7  1997   226    4     0.000     0.000     0.000     0.000     0.000    1.00    0.00    0.00      0   -0.09   -9.00
    18     7  1997   227    4     0.000     0.000     0.000     0.000     0.000    1.00    0.00    0.00      0   -0.09   -9.00
    19     7  1997   228    4     0.000     0.000     0.000     0.000     0.000    1.00    0.00    0.00      0   -0.09   -9.00
    20     7  1997   229    4     0.000     0.000     0.000     0.000     0.000    1.00    0.00    0.00      0   -0.09   -9.00
    21     7  1997   230    4     0.000     0.000     0.000     0.000     0.000    1.00    0.00    0.00      0   -0.09   -9.00
    22     7  1997    -9    0     0.000     0.000     0.000     0.000    -9.000    0.00   -9.00   -9.00      0   -0.09   -9.00
    23     7  1997    -9    0     0.000     0.000     0.000     0.000    -9.000    0.00   -9.00   -9.00      0   -0.09   -9.00
    24     7  1997    -9    0     0.000     0.000     0.000     0.000    -9.000    0.00   -9.00   -9.00      0   -0.09   -9.00
    25     7  1997    -9    0     0.000     0.000     0.000     0.000    -9.000    0.00   -9.00   -9.00      0   -0.09   -9.00
    26     7  1997    -9    0     0.000     0.000     0.000     0.000    -9.000    0.00   -9.00   -9.00      0   -0.09   -9.00
    27     7  1997    -9    0     0.000     0.000     0.000     0.000    -9.000    0.00   -9.00   -9.00      0   -0.09   -9.00
    28     7  1997    -9    0     0.000     0.000     0.000     0.000    -9.000    0.00   -9.00   -9.00      0   -0.09   -9.00
    29     7  1997    -9    0     0.000     0.000     0.000     0.000    -9.000    0.00   -9.00   -9.00      0   -0.09   -9.00
    30     7  1997    -9    0     0.000     0.000     0.000     0.000    -9.000    0.00   -9.00   -9.00      0   -0.09   -9.00
    31     7  1997    -9    0     0.000     0.000     0.000     0.000    -9.000    0.00   -9.00   -9.00      0   -0.09   -9.00
     1     8  1997    -9    0     0.000     0.000     0.000     0.000    -9.000    0.00   -9.00   -9.00      0   -0.09   -9.00
     2     8  1997    -9    0     0.000     0.000     0.000     0.000    -9.000    0.00   -9.00   -9.00      0   -0.09   -9.00
     3     8  1997    -9    0     0.000     0.000     0.000     0.000    -9.000    0.00   -9.00   -9.00      0   -0.09   -9.00
     4     8  1997    -9    0     0.000     0.000     0.000     0.000    -9.000    0.00   -9.00   -9.00      0   -0.09   -9.00
     5     8  1997    -9    0     0.000     0.000     0.000     0.000    -9.000    0.00   -9.00   -9.00      0   -0.09   -9.00
     6     8  1997    -9    0     0.000     0.000     0.000     0.000    -9.000    0.00   -9.00   -9.00      0   -0.09   -9.00
     7     8  1997    -9    0     0.000     0.000     0.000     0.000    -9.000    0.00   -9.00   -9.00      0   -0.09   -9.00
     8     8  1997    -9    0     0.000     0.000     0.000     0.000    -9.000    0.00   -9.00   -9.00      0   -0.09   -9.00
     9     8  1997    -9    0     0.000     0.000     0.000     0.000    -9.000    0.00   -9.00   -9.00      0   -0.09   -9.00
    10     8  1997    -9    0     0.000     0.000     0.000     0.000    -9.000    0.00   -9.00   -9.00      0   -0.09   -9.00
    11     8  1997    -9    0     0.000     0.000     0.000     0.000    -9.000    0.00   -9.00   -9.00      0   -0.09   -9.00
    12     8  1997    -9    0     0.000     0.000     0.000     0.000    -9.000    0.00   -9.00   -9.00      0   -0.09   -9.00
    13     8  1997    -9    0     0.000     0.000     0.000     0.000    -9.000    0.00   -9.00   -9.00      0   -0.09   -9.00
    14     8  1997    -9    0     0.000     0.000     0.000     0.000    -9.000    0.00   -9.00   -9.00      0   -0.09   -9.00
    15     8  1997    -9    0     0.000     0.000     0.000     0.000    -9.000    0.00   -9.00   -9.00      0   -0.09   -9.00
    16     8  1997    -9    0     0.000     0.000     0.000     0.000    -9.000    0.00   -9.00   -9.00      0   -0.09   -9.00
    17     8  1997    -9    0     0.000     0.000     0.000     0.000    -9.000    0.00   -9.00   -9.00      0   -0.09   -9.00
    18     8  1997    -9    0     0.000     0.000     0.000     0.000    -9.000    0.00   -9.00   -9.00      0   -0.09   -9.00
    19     8  1997    -9    0     0.000     0.000     0.000     0.000    -9.000    0.00   -9.00   -9.00      0   -0.09   -9.00
    20     8  1997    -9    0     0.000     0.000     0.000     0.000    -9.000    0.00   -9.00   -9.00      0   -0.09   -9.00
    21     8  1997    -9    0     0.000     0.000     0.000     0.000    -9.000    0.00   -9.00   -9.00      0   -0.09   -9.00
    22     8  1997    -9    0     0.000     0.000     0.000     0.000    -9.000    0.00   -9.00   -9.00      0   -0.09   -9.00
    23     8  1997    -9    0     0.000     0.000     0.000     0.000    -9.000    0.00   -9.00   -9.00      0   -0.09   -9.00

Legend

DAP          : Days after planting
Stage        : 0: before/after planting
Stage        : 1: emergence or transplant recovery
Stage        : 2: vegetative stage
Stage        : 3: flowering
Stage        : 4: yield formation and ripening
SaltIn       : Salt infiltrated in the soil profile
SaltOut      : Salt drained out of the soil profile
SaltUp       : Salt moved upward from the groundwater table
SaltTot      : Salt content in the total soil profile (layer: 0.00 - 1.00 m)
SaltZ        : Salt content in the effective root zone
Z            : Effective rooting depth
ECe          : Electrical conductivity of the saturated soil-paste extract from the root zone
ECsw         : Electrical conductivity of the soil water in the root zone
StSalt       : Salinity stress
Zgwt         : Depth of the groundwater table
ECgw         : Electrical conductivity of the groundwater
