AquaCrop 4.0 (June 2012) - Output created on (date) : 01/05/2014   at (time) : 10:16:34
Crop development and production

   Day Month  Year   DAP Stage    GD       Z     StExp  StSto  StSen StSalt   CC    Kc(Tr)     Trx      Tr   Tr/Trx   WP    StBio  Biomass    HI  YieldPart  Brelative   WPet
                                °C-day     m       %      %      %      %      %      -        mm       mm     %     g/m2     %    ton/ha      %    ton/ha        %      kg/m3
    22     9  1996    -9    0    16.0    0.00     -9     -9     -9      0     0.0    0.00      0.0      0.0   100     0.0     0     0.000    -9.9    0.000      -9      0.00
    23     9  1996    -9    0    13.9    0.00     -9     -9     -9      0     0.0    0.00      0.0      0.0   100     0.0     0     0.000    -9.9    0.000      -9      0.00
    24     9  1996    -9    0    13.8    0.00     -9     -9     -9      0     0.0    0.00      0.0      0.0   100     0.0     0     0.000    -9.9    0.000      -9      0.00
    25     9  1996    -9    0    12.2    0.00     -9     -9     -9      0     0.0    0.00      0.0      0.0   100     0.0     0     0.000    -9.9    0.000      -9      0.00
    26     9  1996    -9    0    12.8    0.00     -9     -9     -9      0     0.0    0.00      0.0      0.0   100     0.0     0     0.000    -9.9    0.000      -9      0.00
    27     9  1996    -9    0    12.9    0.00     -9     -9     -9      0     0.0    0.00      0.0      0.0   100     0.0     0     0.000    -9.9    0.000      -9      0.00
    28     9  1996    -9    0    13.6    0.00     -9     -9     -9      0     0.0    0.00      0.0      0.0   100     0.0     0     0.000    -9.9    0.000      -9      0.00
    29     9  1996    -9    0    15.3    0.00     -9     -9     -9      0     0.0    0.00      0.0      0.0   100     0.0     0     0.000    -9.9    0.000      -9      0.00
    30     9  1996    -9    0    14.7    0.00     -9     -9     -9      0     0.0    0.00      0.0      0.0   100     0.0     0     0.000    -9.9    0.000      -9      0.00
     1    10  1996    -9    0    13.7    0.00     -9     -9     -9      0     0.0    0.00      0.0      0.0   100     0.0     0     0.000    -9.9    0.000      -9      0.00
     2    10  1996    -9    0    12.3    0.00     -9     -9     -9      0     0.0    0.00      0.0      0.0   100     0.0     0     0.000    -9.9    0.000      -9      0.00
     3    10  1996    -9    0    12.2    0.00     -9     -9     -9      0     0.0    0.00      0.0      0.0   100     0.0     0     0.000    -9.9    0.000      -9      0.00
     4    10  1996    -9    0    11.3    0.00     -9     -9     -9      0     0.0    0.00      0.0      0.0   100     0.0     0     0.000    -9.9    0.000      -9      0.00
     5    10  1996    -9    0    14.7    0.00     -9     -9     -9      0     0.0    0.00      0.0      0.0   100     0.0     0     0.000    -9.9    0.000      -9      0.00
     6    10  1996    -9    0    14.1    0.00     -9     -9     -9      0     0.0    0.00      0.0      0.0   100     0.0     0     0.000    -9.9    0.000      -9      0.00
     7    10  1996    -9    0    12.0    0.00     -9     -9     -9      0     0.0    0.00      0.0      0.0   100     0.0     0     0.000    -9.9    0.000      -9      0.00
     8    10  1996    -9    0    14.0    0.00     -9     -9     -9      0     0.0    0.00      0.0      0.0   100     0.0     0     0.000    -9.9    0.000      -9      0.00
     9    10  1996    -9    0    14.4    0.00     -9     -9     -9      0     0.0    0.00      0.0      0.0   100     0.0     0     0.000    -9.9    0.000      -9      0.00
    10    10  1996    -9    0    14.2    0.00     -9     -9     -9      0     0.0    0.00      0.0      0.0   100     0.0     0     0.000    -9.9    0.000      -9      0.00
    11    10  1996    -9    0    14.0    0.00     -9     -9     -9      0     0.0    0.00      0.0      0.0   100     0.0     0     0.000    -9.9    0.000      -9      0.00
    12    10  1996    -9    0    12.5    0.00     -9     -9     -9      0     0.0    0.00      0.0      0.0   100     0.0     0     0.000    -9.9    0.000      -9      0.00
    13    10  1996    -9    0    12.1    0.00     -9     -9     -9      0     0.0    0.00      0.0      0.0   100     0.0     0     0.000    -9.9    0.000      -9      0.00
    14    10  1996    -9    0    14.1    0.00     -9     -9     -9      0     0.0    0.00      0.0      0.0   100     0.0     0     0.000    -9.9    0.000      -9      0.00
    15    10  1996    -9    0    15.3    0.00     -9     -9     -9      0     0.0    0.00      0.0      0.0   100     0.0     0     0.000    -9.9    0.000      -9      0.00
    16    10  1996    -9    0    12.3    0.00     -9     -9     -9      0     0.0    0.00      0.0      0.0   100     0.0     0     0.000    -9.9    0.000      -9      0.00
    17    10  1996    -9    0    10.4    0.00     -9     -9     -9      0     0.0    0.00      0.0      0.0   100     0.0     0     0.000    -9.9    0.000      -9      0.00
    18    10  1996    -9    0     8.8    0.00     -9     -9     -9      0     0.0    0.00      0.0      0.0   100     0.0     0     0.000    -9.9    0.000      -9      0.00
    19    10  1996    -9    0     7.7    0.00     -9     -9     -9      0     0.0    0.00      0.0      0.0   100     0.0     0     0.000    -9.9    0.000      -9      0.00
    20    10  1996    -9    0    10.9    0.00     -9     -9     -9      0     0.0    0.00      0.0      0.0   100     0.0     0     0.000    -9.9    0.000      -9      0.00
    21    10  1996    -9    0     9.8    0.00     -9     -9     -9      0     0.0    0.00      0.0      0.0   100     0.0     0     0.000    -9.9    0.000      -9      0.00
    22    10  1996    -9    0    12.3    0.00     -9     -9     -9      0     0.0    0.00      0.0      0.0   100     0.0     0     0.000    -9.9    0.000      -9      0.00
    23    10  1996    -9    0    11.9    0.00     -9     -9     -9      0     0.0    0.00      0.0      0.0   100     0.0     0     0.000    -9.9    0.000      -9      0.00
    24    10  1996    -9    0    10.2    0.00     -9     -9     -9      0     0.0    0.00      0.0      0.0   100     0.0     0     0.000    -9.9    0.000      -9      0.00
    25    10  1996    -9    0     9.1    0.00     -9     -9     -9      0     0.0    0.00      0.0      0.0   100     0.0     0     0.000    -9.9    0.000      -9      0.00
    26    10  1996    -9    0     8.6    0.00     -9     -9     -9      0     0.0    0.00      0.0      0.0   100     0.0     0     0.000    -9.9    0.000      -9      0.00
    27    10  1996    -9    0     9.0    0.00     -9     -9     -9      0     0.0    0.00      0.0      0.0   100     0.0     0     0.000    -9.9    0.000      -9      0.00
    28    10  1996    -9    0     8.5    0.00     -9     -9     -9      0     0.0    0.00      0.0      0.0   100     0.0     0     0.000    -9.9    0.000      -9      0.00
    29    10  1996    -9    0    10.4    0.00     -9     -9     -9      0     0.0    0.00      0.0      0.0   100     0.0     0     0.000    -9.9    0.000      -9      0.00
    30    10  1996    -9    0    12.1    0.00     -9     -9     -9      0     0.0    0.00      0.0      0.0   100     0.0     0     0.000    -9.9    0.000      -9      0.00
    31    10  1996    -9    0    10.3    0.00     -9     -9     -9      0     0.0    0.00      0.0      0.0   100     0.0     0     0.000    -9.9    0.000      -9      0.00
     1    11  1996    -9    0     8.6    0.00     -9     -9     -9      0     0.0    0.00      0.0      0.0   100     0.0     0     0.000    -9.9    0.000      -9      0.00
     2    11  1996    -9    0    11.4    0.00     -9     -9     -9      0     0.0    0.00      0.0      0.0   100     0.0     0     0.000    -9.9    0.000      -9      0.00
     3    11  1996    -9    0    10.8    0.00     -9     -9     -9      0     0.0    0.00      0.0      0.0   100     0.0     0     0.000    -9.9    0.000      -9      0.00
     4    11  1996    -9    0     9.0    0.00     -9     -9     -9      0     0.0    0.00      0.0      0.0   100     0.0     0     0.000    -9.9    0.000      -9      0.00
     5    11  1996    -9    0    11.3    0.00     -9     -9     -9      0     0.0    0.00      0.0      0.0   100     0.0     0     0.000    -9.9    0.000      -9      0.00
     6    11  1996    -9    0    11.4    0.00     -9     -9     -9      0     0.0    0.00      0.0      0.0   100     0.0     0     0.000    -9.9    0.000      -9      0.00
     7    11  1996    -9    0    10.5    0.00     -9     -9     -9      0     0.0    0.00      0.0      0.0   100     0.0     0     0.000    -9.9    0.000      -9      0.00
     8    11  1996    -9    0    10.4    0.00     -9     -9     -9      0     0.0    0.00      0.0      0.0   100     0.0     0     0.000    -9.9    0.000      -9      0.00
     9    11  1996    -9    0     9.9    0.00     -9     -9     -9      0     0.0    0.00      0.0      0.0   100     0.0     0     0.000    -9.9    0.000      -9      0.00
    10    11  1996    -9    0     9.8    0.00     -9     -9     -9      0     0.0    0.00      0.0      0.0   100     0.0     0     0.000    -9.9    0.000      -9      0.00
    11    11  1996    -9    0    13.6    0.00     -9     -9     -9      0     0.0    0.00      0.0      0.0   100     0.0     0     0.000    -9.9    0.000      -9      0.00
    12    11  1996    -9    0    15.3    0.00     -9     -9     -9      0     0.0    0.00      0.0      0.0   100     0.0     0     0.000    -9.9    0.000      -9      0.00
    13    11  1996    -9    0    15.1    0.00     -9     -9     -9      0     0.0    0.00      0.0      0.0   100     0.0     0     0.000    -9.9    0.000      -9      0.00
    14    11  1996    -9    0    15.4    0.00     -9     -9     -9      0     0.0    0.00      0.0      0.0   100     0.0     0     0.000    -9.9    0.000      -9      0.00
    15    11  1996    -9    0    15.2    0.00     -9     -9     -9      0     0.0    0.00      0.0      0.0   100     0.0     0     0.000    -9.9    0.000      -9      0.00
    16    11  1996    -9    0    13.1    0.00     -9     -9     -9      0     0.0    0.00      0.0      0.0   100     0.0     0     0.000    -9.9    0.000      -9      0.00
    17    11  1996    -9    0    12.4    0.00     -9     -9     -9      0     0.0    0.00      0.0      0.0   100     0.0     0     0.000    -9.9    0.000      -9      0.00
    18    11  1996    -9    0    10.0    0.00     -9     -9     -9      0     0.0    0.00      0.0      0.0   100     0.0     0     0.000    -9.9    0.000      -9      0.00
    19    11  1996    -9    0     7.3    0.00     -9     -9     -9      0     0.0    0.00      0.0      0.0   100     0.0     0     0.000    -9.9    0.000      -9      0.00
    20    11  1996    -9    0     8.1    0.00     -9     -9     -9      0     0.0    0.00      0.0      0.0   100     0.0     0     0.000    -9.9    0.000      -9      0.00
    21    11  1996    -9    0     5.4    0.00     -9     -9     -9      0     0.0    0.00      0.0      0.0   100     0.0     0     0.000    -9.9    0.000      -9      0.00
    22    11  1996    -9    0     6.9    0.00     -9     -9     -9      0     0.0    0.00      0.0      0.0   100     0.0     0     0.000    -9.9    0.000      -9      0.00
    23    11  1996    -9    0     3.5    0.00     -9     -9     -9      0     0.0    0.00      0.0      0.0   100     0.0     0     0.000    -9.9    0.000      -9      0.00
    24    11  1996    -9    0     3.5    0.00     -9     -9     -9      0     0.0    0.00      0.0      0.0   100     0.0     0     0.000    -9.9    0.000      -9      0.00
    25    11  1996    -9    0     2.8    0.00     -9     -9     -9      0     0.0    0.00      0.0      0.0   100     0.0     0     0.000    -9.9    0.000      -9      0.00
    26    11  1996    -9    0     5.2    0.00     -9     -9     -9      0     0.0    0.00      0.0      0.0   100     0.0     0     0.000    -9.9    0.000      -9      0.00
    27    11  1996    -9    0     5.0    0.00     -9     -9     -9      0     0.0    0.00      0.0      0.0   100     0.0     0     0.000    -9.9    0.000      -9      0.00
    28    11  1996    -9    0     7.1    0.00     -9     -9     -9      0     0.0    0.00      0.0      0.0   100     0.0     0     0.000    -9.9    0.000      -9      0.00
    29    11  1996    -9    0     2.9    0.00     -9     -9     -9      0     0.0    0.00      0.0      0.0   100     0.0     0     0.000    -9.9    0.000      -9      0.00
    30    11  1996    -9    0     3.0    0.00     -9     -9     -9      0     0.0    0.00      0.0      0.0   100     0.0     0     0.000    -9.9    0.000      -9      0.00
     1    12  1996    -9    0     3.7    0.00     -9     -9     -9      0     0.0    0.00      0.0      0.0   100     0.0     0     0.000    -9.9    0.000      -9      0.00
     2    12  1996    -9    0     4.1    0.00     -9     -9     -9      0     0.0    0.00      0.0      0.0   100     0.0     0     0.000    -9.9    0.000      -9      0.00
     3    12  1996    -9    0     3.5    0.00     -9     -9     -9      0     0.0    0.00      0.0      0.0   100     0.0     0     0.000    -9.9    0.000      -9      0.00
     4    12  1996     1    1     3.8    0.30     -9     -9     -9      0     0.0    0.00      0.0      0.0   100    14.7     0     0.000    -9.9    0.000      -9      0.00
     5    12  1996     2    1     4.0    0.30     -9     -9     -9      0     0.0    0.00      0.0      0.0   100    14.7     0     0.000    -9.9    0.000      -9      0.00
     6    12  1996     3    1     3.1    0.30     -9     -9     -9      0     0.0    0.00      0.0      0.0   100    14.7     0     0.000    -9.9    0.000      -9      0.00
     7    12  1996     4    1     7.1    0.30     -9     -9     -9      0     0.0    0.00      0.0      0.0   100    14.7     0     0.000    -9.9    0.000      -9      0.00
     8    12  1996     5    1     5.9    0.30     -9     -9     -9      0     0.0    0.00      0.0      0.0   100    14.7     0     0.000    -9.9    0.000      -9      0.00
     9    12  1996     6    1     6.2    0.30     -9     -9     -9      0     0.0    0.00      0.0      0.0   100    14.7     0     0.000    -9.9    0.000      -9      0.00
    10    12  1996     7    1     8.1    0.30     -9     -9     -9      0     0.0    0.00      0.0      0.0   100    14.7     0     0.000    -9.9    0.000      -9      0.00
    11    12  1996     8    1     6.3    0.30     -9     -9     -9      0     0.0    0.00      0.0      0.0   100    14.7     0     0.000    -9.9    0.000      -9      0.00
    12    12  1996     9    1     5.5    0.30     -9     -9     -9      0     0.0    0.00      0.0      0.0   100    14.7     0     0.000    -9.9    0.000      -9      0.00
    13    12  1996    10    1     7.8    0.30     -9     -9     -9      0     0.0    0.00      0.0      0.0   100    14.7     0     0.000    -9.9    0.000      -9      0.00
    14    12  1996    11    1    11.6    0.30     -9     -9     -9      0     0.0    0.00      0.0      0.0   100    14.7     0     0.000    -9.9    0.000      -9      0.00
    15    12  1996    12    1     7.8    0.30     -9     -9     -9      0     0.0    0.00      0.0      0.0   100    14.7     0     0.000    -9.9    0.000      -9      0.00
    16    12  1996    13    1     6.3    0.30     -9     -9     -9      0     0.0    0.00      0.0      0.0   100    14.7     0     0.000    -9.9    0.000      -9      0.00
    17    12  1996    14    1     4.3    0.30     -9     -9     -9      0     0.0    0.00      0.0      0.0   100    14.7     0     0.000    -9.9    0.000      -9      0.00
    18    12  1996    15    1     6.3    0.32     -9     -9     -9      0     0.0    0.00      0.0      0.0   100    14.7     0     0.000    -9.9    0.000      -9      0.00
    19    12  1996    16    1     4.6    0.33     -9     -9     -9      0     0.0    0.00      0.0      0.0   100    14.7     0     0.000    -9.9    0.000      -9      0.00
    20    12  1996    17    1     9.3    0.37     -9     -9     -9      0     0.0    0.00      0.0      0.0   100    14.7     0     0.000    -9.9    0.000      -9      0.00
    21    12  1996    18    1    10.7    0.40     -9     -9     -9      0     0.0    0.00      0.0      0.0   100    14.7     0     0.000    -9.9    0.000      -9      0.00
    22    12  1996    19    1    10.2    0.43     -9     -9     -9      0     0.0    0.00      0.0      0.0   100    14.7     0     0.000    -9.9    0.000      -9      0.00
    23    12  1996    20    1    10.7    0.45     -9     -9     -9      0     0.0    0.00      0.0      0.0   100    14.7     0     0.000    -9.9    0.000      -9      0.00
    24    12  1996    21    1     9.8    0.48     -9     -9     -9      0     0.0    0.00      0.0      0.0   100    14.7     0     0.000    -9.9    0.000      -9      0.00
    25    12  1996    22    1     6.7    0.49     -9      0      0      0     7.0    0.13      0.1      0.1   100    14.7    56     0.008    -9.9    0.000     100      0.00
    26    12  1996    23    2     0.0    0.49      0      0      0      0     7.0    0.13      0.2      0.2   100    14.7   100     0.008    -9.9    0.000     100      0.00
    27    12  1996    24    2     0.0    0.49      0      0      0      0     7.0    0.13      0.1      0.1   100    14.7   100     0.008    -9.9    0.000     100      0.00
    28    12  1996    25    2     0.0    0.49      0      0      0      0     7.0    0.13      0.1      0.1   100    14.7   100     0.008    -9.9    0.000     100      0.00
    29    12  1996    26    2     0.0    0.49      0      0      0      0     7.0    0.13      0.1      0.1   100    14.7   100     0.008    -9.9    0.000     100      0.00
    30    12  1996    27    2     0.0    0.49      0      0      0      0     7.0    0.13      0.1      0.1   100    14.7   100     0.008    -9.9    0.000     100      0.00
    31    12  1996    28    2     0.0    0.49      0      0      0      0     7.0    0.13      0.1      0.1   100    14.7   100     0.008    -9.9    0.000     100      0.00
     1     1  1997    29    2     8.1    0.51      0      0      0      0     7.3    0.13      0.1      0.1   100    14.7    36     0.021    -9.9    0.000     100      0.00
     2     1  1997    30    2     9.6    0.53      0      0      0      0     7.6    0.14      0.1      0.1   100    14.7    20     0.037    -9.9    0.000     100      0.00
     3     1  1997    31    2    10.8    0.56      0      0      0      0     8.0    0.15      0.1      0.1   100    14.7    12     0.056    -9.9    0.000     100      0.00
     4     1  1997    32    2     6.7    0.57      0      0      0      0     8.3    0.15      0.1      0.1   100    14.7    55     0.066    -9.9    0.000     100      0.00
     5     1  1997    33    2     5.0    0.58      0      0      0      0     8.5    0.15      0.1      0.1   100    14.7    77     0.071    -9.9    0.000     100      0.00
     6     1  1997    34    2     5.0    0.59      0      0      0      0     8.7    0.16      0.1      0.1   100    14.7    77     0.077    -9.9    0.000     100      0.00
     7     1  1997    35    2     6.0    0.60      0      0      0      0     9.0    0.16      0.1      0.1   100    14.7    65     0.085    -9.9    0.000     100      0.00
     8     1  1997    36    2     6.5    0.61      0      0      0      0     9.3    0.17      0.1      0.1   100    14.7    59     0.095    -9.9    0.000     100      0.00
     9     1  1997    37    2     7.5    0.63      0      0      0      0     9.7    0.17      0.1      0.1   100    14.7    44     0.109    -9.9    0.000     100      0.00
    10     1  1997    38    2     3.9    0.64      0      0      0      0     9.8    0.18      0.1      0.1   100    14.7    87     0.113    -9.9    0.000     100      0.00
    11     1  1997    39    2     6.1    0.65      0      0      0      0    10.2    0.18      0.2      0.2   100    14.7    63     0.122    -9.9    0.000     100      0.00
    12     1  1997    40    2     6.3    0.66      0      0      0      0    10.5    0.19      0.3      0.3   100    14.7    61     0.133    -9.9    0.000     100      0.00
    13     1  1997    41    2     6.2    0.67      0      0      0      0    10.8    0.19      0.3      0.3   100    14.7    62     0.144    -9.9    0.000     100      0.00
    14     1  1997    42    2     6.5    0.68      0      0      0      0    11.2    0.20      0.3      0.3   100    14.7    57     0.156    -9.9    0.000     100      0.00
    15     1  1997    43    2     6.7    0.69      0      0      0      0    11.5    0.20      0.2      0.2   100    14.7    55     0.170    -9.9    0.000     100      0.00
    16     1  1997    44    2     4.2    0.70      0      0      0      0    11.8    0.21      0.1      0.1   100    14.7    84     0.175    -9.9    0.000     100      0.00
    17     1  1997    45    2     2.8    0.71      0      0      0      0    12.0    0.21      0.1      0.1   100    14.7    93     0.177    -9.9    0.000     100      0.00
    18     1  1997    46    2     0.3    0.71      0      0      0      0    12.0    0.21      0.1      0.1   100    14.7   100     0.177    -9.9    0.000     100      0.00
    19     1  1997    47    2     3.1    0.71      0      0      0      0    12.2    0.21      0.1      0.1   100    14.7    91     0.180    -9.9    0.000     100      0.00
    20     1  1997    48    2     9.4    0.73      0      0      0      0    12.7    0.22      0.2      0.2   100    14.7    22     0.206    -9.9    0.000     100      0.00
    21     1  1997    49    2    10.1    0.75      0      0      0      0    13.4    0.23      0.3      0.3   100    14.7    16     0.235    -9.9    0.000     100      0.00
    22     1  1997    50    2     9.3    0.76      0      0      0      0    14.0    0.24      0.3      0.3   100    14.7    22     0.263    -9.9    0.000     100      0.00
    23     1  1997    51    2     9.2    0.78      0      0      0      0    14.7    0.26      0.3      0.3   100    14.7    24     0.292    -9.9    0.000     100      0.00
    24     1  1997    52    2     7.7    0.79      0      0      0      0    15.3    0.26      0.2      0.2   100    14.7    42     0.314    -9.9    0.000     100      0.00
    25     1  1997    53    2     6.8    0.80      0      0      0      0    15.8    0.27      0.2      0.2   100    14.7    54     0.333    -9.9    0.000     100      0.00
    26     1  1997    54    2     6.7    0.81      0      0      0      0    16.3    0.28      0.3      0.3   100    14.7    56     0.351    -9.9    0.000     100      0.00
    27     1  1997    55    2     7.5    0.82      0      0      0      0    17.0    0.29      0.3      0.3   100    14.7    45     0.375    -9.9    0.000     100      0.00
    28     1  1997    56    2     8.0    0.84      0      0      0      0    17.6    0.30      0.3      0.3   100    14.7    38     0.402    -9.9    0.000     100      0.00
    29     1  1997    57    2     8.0    0.85      0      0      0      0    18.4    0.31      0.5      0.5   100    14.7    38     0.431    -9.9    0.000     100      0.00
    30     1  1997    58    2     5.2    0.86      0      0      0      0    18.8    0.32      0.4      0.4   100    14.7    75     0.443    -9.9    0.000     100      0.00
    31     1  1997    59    2     3.9    0.86      0      0      0      0    19.2    0.33      0.5      0.5   100    14.7    86     0.449    -9.9    0.000     100      0.00
     1     2  1997    60    2     5.5    0.87      0      0      0      0    19.7    0.33      0.4      0.4   100    14.7    71     0.464    -9.9    0.000     100      0.00
     2     2  1997    61    2     4.1    0.88      0      0      0      0    20.2    0.34      0.4      0.4   100    14.7    84     0.471    -9.9    0.000     100      0.00
     3     2  1997    62    2     4.2    0.88      0      0      0      0    20.6    0.35      0.4      0.4   100    14.7    84     0.479    -9.9    0.000     100      0.00
     4     2  1997    63    2     3.4    0.89      0      0      0      0    20.9    0.35      0.2      0.2   100    14.7    89     0.485    -9.9    0.000     100      0.00
     5     2  1997    64    2     4.7    0.90      0      0      0      0    21.4    0.36      0.1      0.1   100    14.7    80     0.496    -9.9    0.000     100      0.00
     6     2  1997    65    2     6.7    0.91      0      0      0      0    22.2    0.37      0.4      0.4   100    14.7    55     0.520    -9.9    0.000     100      0.00
     7     2  1997    66    2     6.5    0.91      0      0      0      0    22.9    0.38      0.8      0.8   100    14.7    59     0.543    -9.9    0.000     100      0.00
     8     2  1997    67    2     5.6    0.92      0      0      0      0    23.5    0.39      0.7      0.7   100    14.7    70     0.561    -9.9    0.000     100      0.00
     9     2  1997    68    2     5.5    0.93      0      0      0      0    24.2    0.40      0.6      0.6   100    14.7    71     0.578    -9.9    0.000     100      0.00
    10     2  1997    69    2     6.5    0.94      0      0      0      0    25.0    0.41      0.5      0.5   100    14.7    57     0.603    -9.9    0.000     100      0.00
    11     2  1997    70    2     6.7    0.95      0      0      0      0    25.9    0.42      0.5      0.5   100    14.7    55     0.631    -9.9    0.000     100      0.00
    12     2  1997    71    2     8.2    0.96      0      0      0      0    26.9    0.44      0.4      0.4   100    14.7    35     0.673    -9.9    0.000     100      0.00
    13     2  1997    72    2     8.1    0.97      0      0      0      0    28.1    0.45      0.5      0.5   100    14.7    36     0.716    -9.9    0.000     100      0.00
    14     2  1997    73    2     6.4    0.98      0      0      0      0    29.0    0.46      0.6      0.6   100    14.7    60     0.743    -9.9    0.000     100      0.00
    15     2  1997    74    2     8.0    0.99      0      0      0      0    30.1    0.48      0.2      0.2   100    14.7    38     0.787    -9.9    0.000     100      0.00
    16     2  1997    75    2     3.8    1.00      0      0      0      0    30.7    0.49      1.0      1.0   100    14.7    87     0.796    -9.9    0.000     100      0.00
    17     2  1997    76    2     3.6    1.00      0      0      0      0    31.3    0.49      0.9      0.9   100    14.7    88     0.805    -9.9    0.000     100      0.00
    18     2  1997    77    2     4.2    1.00      0      0      0      0    31.9    0.50      1.0      1.0   100    14.7    84     0.817    -9.9    0.000     100      0.00
    19     2  1997    78    2     6.0    1.00      0      0      0      0    32.9    0.52      1.0      1.0   100    14.7    65     0.843    -9.9    0.000     100      0.00
    20     2  1997    79    2     5.4    1.00      0      0      0      0    33.8    0.53      1.1      1.1   100    14.7    72     0.865    -9.9    0.000     100      0.00
    21     2  1997    80    2     6.2    1.00      0      0      0      0    34.9    0.54      0.8      0.8   100    14.7    63     0.894    -9.9    0.000     100      0.00
    22     2  1997    81    2     8.0    1.00      0      0      0      0    36.3    0.56      0.8      0.8   100    14.7    38     0.945    -9.9    0.000     100      0.00
    23     2  1997    82    2     6.5    1.00      0      0      0      0    37.5    0.57      0.9      0.9   100    14.7    59     0.980    -9.9    0.000     100      0.00
    24     2  1997    83    2     6.2    1.00      0      0      0      0    38.6    0.59      0.5      0.5   100    14.7    62     1.013    -9.9    0.000     100      0.00
    25     2  1997    84    2     9.8    1.00      0      0      0      0    40.6    0.61      0.5      0.5   100    14.7    18     1.086    -9.9    0.000     100      0.00
    26     2  1997    85    2     6.7    1.00      0      0      0      0    41.9    0.62      0.4      0.4   100    14.7    55     1.127    -9.9    0.000     100      0.00
    27     2  1997    86    2     6.7    1.00      0      0      0      0    43.4    0.64      1.2      1.2   100    14.7    55     1.170    -9.9    0.000     100      0.00
    28     2  1997    87    2     5.2    1.00      0      0      0      0    44.5    0.65      1.4      1.4   100    14.7    74     1.194    -9.9    0.000     100      0.00
     1     3  1997    88    2     0.0    1.00      1      0      0      0    44.5    0.65      1.6      1.6   100    14.7   100     1.194    -9.9    0.000     100      0.00
     2     3  1997    89    2     0.0    1.00      1      0      0      0    44.5    0.65      1.8      1.8   100    14.7   100     1.194    -9.9    0.000     100      0.00
     3     3  1997    90    2     8.7    1.00      3      0      0      0    46.4    0.67      2.0      2.0   100    14.7    29     1.265    -9.9    0.000     100      0.00
     4     3  1997    91    2    10.7    1.00      4      0      0      0    48.9    0.70      1.8      1.8   100    14.7    12     1.356    -9.9    0.000     100      0.00
     5     3  1997    92    2     9.4    1.00      3      0      0      0    50.9    0.72      1.2      1.2   100    14.7    21     1.440    -9.9    0.000     100      0.00
     6     3  1997    93    2     9.5    1.00      4      0      0      0    52.9    0.74      1.0      1.0   100    14.7    21     1.527    -9.9    0.000     100      0.00
     7     3  1997    94    2    12.5    1.00     10      0      0      0    55.2    0.76      2.4      2.4   100    14.7     5     1.634    -9.9    0.000     100      0.00
     8     3  1997    95    2    10.0    1.00     13      0      0      0    56.9    0.78      2.2      2.2   100    14.7    16     1.730    -9.9    0.000     100      0.00
     9     3  1997    96    2     8.5    1.00     19      0      0      0    58.1    0.79      2.1      2.1   100    14.7    32     1.810    -9.9    0.000     100      0.00
    10     3  1997    97    2     9.2    1.00     33      0      0      0    59.2    0.80      2.6      2.6   100    14.7    23     1.901    -9.9    0.000     100      0.00
    11     3  1997    98    2     8.0    1.00     39      0      0      0    60.0    0.81      2.0      2.0   100    14.7    38     1.975    -9.9    0.000     100      0.00
    12     3  1997    99    2     9.5    1.00     68      0      0      0    60.4    0.81      2.6      2.6   100    14.7    21     2.070    -9.9    0.000     100      0.00
    13     3  1997   100    2     7.8    1.00     94      0      0      0    60.4    0.81      2.4      2.4   100    14.7    39     2.143    -9.9    0.000      99      0.00
    14     3  1997   101    2     9.3    1.00    100      6      0      0    60.4    0.81      2.0      1.8    94    14.7    23     2.230    -9.9    0.000      99      0.00
    15     3  1997   102    2     9.5    1.00    100     15      0      0    60.4    0.81      2.0      1.7    85    14.7    21     2.311    -9.9    0.000      98      0.00
    16     3  1997   103    2    10.7    1.00    100     26      3      0    60.3    0.81      2.4      1.8    74    14.7    12     2.389    -9.9    0.000      97      0.00
    17     3  1997   104    2     9.5    1.00    100     32      6      0    60.3    0.81      2.1      1.4    68    14.7    20     2.453    -9.9    0.000      95      0.00
    18     3  1997   105    2    11.3    1.00    100     39      9      0    60.1    0.81      2.0      1.2    61    14.7     9     2.520    -9.9    0.000      93      0.00
    19     3  1997   106    2     9.2    1.00    100     44     12      0    60.0    0.81      1.9      1.1    56    14.7    23     2.571    -9.9    0.000      92      0.00
    20     3  1997   107    2     9.2    1.00    100     51     16      0    59.8    0.80      2.2      1.1    49    14.7    23     2.615    -9.9    0.000      90      0.00
    21     3  1997   108    2     5.9    1.00    100     56     20      0    59.7    0.80      2.2      1.0    44    14.7    66     2.633    -9.9    0.000      89      0.00
    22     3  1997   109    2     7.5    1.00    100     59     24      0    59.6    0.80      1.9      0.8    41    14.7    45     2.659    -9.9    0.000      88      0.00

Legend

DAP          : Days after planting
Stage        : 0: before/after planting
Stage        : 1: emergence or transplant recovery
Stage        : 2: vegetative stage
Stage        : 3: flowering
Stage        : 4: yield formation and ripening
GD           : Growing degrees
Z            : Effective rooting depth
StExp        : Percent water stress reducing leaf expansion
StSto        : Percent water stress inducing stomatal closure
StSen        : Percent water stress triggering early canopy senescence
StSalt       : Percent salinity stress
CC           : Green Canopy Cover
Kc(Tr)       : Crop coefficient for transpiration
Trx          : Maximum crop transpiration
Tr           : Crop transpiration
Tr/Trx       : Relative crop transpiration (100 Tr/Trx)
WP           : Crop water productivity adjusted for CO2, soil fertility and products synthesized
StBio        : Percent temperature stress affecting biomass production
Biomass      : Cumulative biomass produced
HI           : Harvest Index adjusted for failure of pollination, inadequate photosynthesis and water stress
Yield Part   : Yield (HI x Biomass)
Brelative    : Relative biomass (Reference: no water, no soil fertility, no soil salinity stress)
WPet         : ET Water productivity for yield part (kg yield produced per m3 water evapotranspired)
