AquaCrop 4.0 (June 2012) - Output created on (date) : 01/05/2014   at (time) : 09:47:20
Soil Water balance

   Day Month  Year   DAP Stage     WCTot    Rain     Irri   Surf   Infilt   RO    Drain       CR    Zgwt       Ex       E     E/Ex    Trx       Tr  Tr/Trx    ETx      ET   ET/ETx
                                      mm      mm       mm     mm     mm     mm       mm       mm      m        mm       mm     %       mm       mm    %        mm      mm      %
    22     9  1996    -9    0      219.9    13.4      0.0    0.0   13.4    0.0      0.0      0.0   -9.90      3.5      3.5   100      0.0      0.0   100      3.5     3.5    100
    23     9  1996    -9    0      240.2    23.2      0.0    0.0   23.2    0.0      0.0      0.0   -9.90      2.9      2.9   100      0.0      0.0   100      2.9     2.9    100
    24     9  1996    -9    0      237.2     0.0      0.0    0.0    0.0    0.0      0.0      0.0   -9.90      3.0      3.0   100      0.0      0.0   100      3.0     3.0    100
    25     9  1996    -9    0      240.3     5.8      0.0    0.0    5.8    0.0      0.0      0.0   -9.90      2.8      2.8   100      0.0      0.0   100      2.8     2.8    100
    26     9  1996    -9    0      243.7     6.6      0.0    0.0    6.6    0.0      0.0      0.0   -9.90      3.2      3.2   100      0.0      0.0   100      3.2     3.2    100
    27     9  1996    -9    0      239.7     0.0      0.0    0.0    0.0    0.0      0.0      0.0   -9.90      4.1      4.0    99      0.0      0.0   100      4.1     4.0     99
    28     9  1996    -9    0      236.7     0.0      0.0    0.0    0.0    0.0      0.0      0.0   -9.90      4.1      2.9    72      0.0      0.0   100      4.1     2.9     72
    29     9  1996    -9    0      234.7     0.0      0.0    0.0    0.0    0.0      0.0      0.0   -9.90      4.0      2.0    50      0.0      0.0   100      4.0     2.0     50
    30     9  1996    -9    0      233.5     0.0      0.0    0.0    0.0    0.0      0.0      0.0   -9.90      3.0      1.2    40      0.0      0.0   100      3.0     1.2     40
     1    10  1996    -9    0      231.2     0.2      0.0    0.0    0.2    0.0      0.0      0.0   -9.90      3.1      2.6    84      0.0      0.0   100      3.1     2.6     84
     2    10  1996    -9    0      234.7     6.2      0.0    0.0    6.2    0.0      0.0      0.0   -9.90      2.6      2.6   100      0.0      0.0   100      2.6     2.6    100
     3    10  1996    -9    0      231.7     0.2      0.0    0.0    0.2    0.0      0.0      0.0   -9.90      4.1      3.2    79      0.0      0.0   100      4.1     3.2     79
     4    10  1996    -9    0      229.9     0.0      0.0    0.0    0.0    0.0      0.0      0.0   -9.90      3.7      1.9    50      0.0      0.0   100      3.7     1.9     50
     5    10  1996    -9    0      228.7     0.0      0.0    0.0    0.0    0.0      0.0      0.0   -9.90      3.2      1.2    38      0.0      0.0   100      3.2     1.2     38
     6    10  1996    -9    0      227.9     0.0      0.0    0.0    0.0    0.0      0.0      0.0   -9.90      2.5      0.8    31      0.0      0.0   100      2.5     0.8     31
     7    10  1996    -9    0      270.9    46.4      0.0    0.0   45.0    1.4      0.0      0.0   -9.90      2.0      2.0   100      0.0      0.0   100      2.0     2.0    100
     8    10  1996    -9    0      280.9    14.6      0.0    0.0   13.2    1.4      0.0      0.0   -9.90      3.2      3.2   100      0.0      0.0   100      3.2     3.2    100
     9    10  1996    -9    0      276.6     0.0      0.0    0.0    0.0    0.0      0.0      0.0   -9.90      4.3      4.3   100      0.0      0.0   100      4.3     4.3    100
    10    10  1996    -9    0      272.5     0.0      0.0    0.0    0.0    0.0      0.0      0.0   -9.90      4.2      4.2   100      0.0      0.0   100      4.2     4.2    100
    11    10  1996    -9    0      270.2     0.0      0.0    0.0    0.0    0.0      0.0      0.0   -9.90      3.4      2.3    68      0.0      0.0   100      3.4     2.3     68
    12    10  1996    -9    0      268.7     0.0      0.0    0.0    0.0    0.0      0.0      0.0   -9.90      3.2      1.5    47      0.0      0.0   100      3.2     1.5     47
    13    10  1996    -9    0      266.5     0.4      0.0    0.0    0.4    0.0      0.0      0.0   -9.90      3.0      2.5    86      0.0      0.0   100      3.0     2.5     86
    14    10  1996    -9    0      275.2    11.8      0.0    0.0   11.8    0.0      0.0      0.0   -9.90      3.1      3.1   100      0.0      0.0   100      3.1     3.1    100
    15    10  1996    -9    0      282.2    11.6      0.0    0.0   11.0    0.6      0.0      0.0   -9.90      4.1      4.1   100      0.0      0.0   100      4.1     4.1    100
    16    10  1996    -9    0      303.7    39.4      0.0    0.0   23.7   15.7      0.0      0.0   -9.90      2.2      2.2   100      0.0      0.0   100      2.2     2.2    100
    17    10  1996    -9    0      310.5     9.4      0.0    0.0    9.2    0.2      0.0      0.0   -9.90      2.4      2.4   100      0.0      0.0   100      2.4     2.4    100
    18    10  1996    -9    0      308.5     0.2      0.0    0.0    0.2    0.0      0.0      0.0   -9.90      2.4      2.2    92      0.0      0.0   100      2.4     2.2     92
    19    10  1996    -9    0      306.9     0.2      0.0    0.0    0.2    0.0      0.0      0.0   -9.90      1.9      1.7    93      0.0      0.0   100      1.9     1.7     93
    20    10  1996    -9    0      305.4     0.0      0.0    0.0    0.0    0.0      0.0      0.0   -9.90      2.8      1.6    58      0.0      0.0   100      2.8     1.6     58
    21    10  1996    -9    0      303.9     0.2      0.0    0.0    0.2    0.0      0.0      0.0   -9.90      1.9      1.7    91      0.0      0.0   100      1.9     1.7     91
    22    10  1996    -9    0      302.2     0.0      0.0    0.0    0.0    0.0      0.0      0.0   -9.90      2.4      1.6    68      0.0      0.0   100      2.4     1.6     68
    23    10  1996    -9    0      300.1     0.2      0.0    0.0    0.2    0.0      0.0      0.0   -9.90      2.8      2.3    85      0.0      0.0   100      2.8     2.3     85
    24    10  1996    -9    0      297.7     0.2      0.0    0.0    0.2    0.0      0.0      0.0   -9.90      3.3      2.6    79      0.0      0.0   100      3.3     2.6     79
    25    10  1996    -9    0      296.3     0.0      0.0    0.0    0.0    0.0      0.0      0.0   -9.90      2.5      1.4    54      0.0      0.0   100      2.5     1.4     54
    26    10  1996    -9    0      295.2     0.0      0.0    0.0    0.0    0.0      0.0      0.0   -9.90      2.5      1.1    43      0.0      0.0   100      2.5     1.1     43
    27    10  1996    -9    0      294.4     0.0      0.0    0.0    0.0    0.0      0.0      0.0   -9.90      2.2      0.8    36      0.0      0.0   100      2.2     0.8     36
    28    10  1996    -9    0      293.9     0.0      0.0    0.0    0.0    0.0      0.0      0.0   -9.90      1.8      0.6    31      0.0      0.0   100      1.8     0.6     31
    29    10  1996    -9    0      292.0     0.2      0.0    0.0    0.2    0.0      0.0      0.0   -9.90      2.6      2.0    77      0.0      0.0   100      2.6     2.0     77
    30    10  1996    -9    0      291.1     0.8      0.0    0.0    0.8    0.0      0.0      0.0   -9.90      2.5      1.7    68      0.0      0.0   100      2.5     1.7     68
    31    10  1996    -9    0      290.0     0.0      0.0    0.0    0.0    0.0      0.0      0.0   -9.90      2.9      1.2    41      0.0      0.0   100      2.9     1.2     41
     1    11  1996    -9    0      289.3     0.0      0.0    0.0    0.0    0.0      0.0      0.0   -9.90      2.2      0.7    32      0.0      0.0   100      2.2     0.7     32
     2    11  1996    -9    0      288.5     0.0      0.0    0.0    0.0    0.0      0.0      0.0   -9.90      2.9      0.8    26      0.0      0.0   100      2.9     0.8     26
     3    11  1996    -9    0      288.0     0.0      0.0    0.0    0.0    0.0      0.0      0.0   -9.90      2.2      0.5    22      0.0      0.0   100      2.2     0.5     22
     4    11  1996    -9    0      287.7     0.2      0.0    0.0    0.2    0.0      0.0      0.0   -9.90      1.7      0.5    30      0.0      0.0   100      1.7     0.5     30
     5    11  1996    -9    0      287.3     0.0      0.0    0.0    0.0    0.0      0.0      0.0   -9.90      2.1      0.4    19      0.0      0.0   100      2.1     0.4     19
     6    11  1996    -9    0      287.0     0.0      0.0    0.0    0.0    0.0      0.0      0.0   -9.90      1.9      0.3    18      0.0      0.0   100      1.9     0.3     18
     7    11  1996    -9    0      286.9     0.8      0.0    0.0    0.8    0.0      0.0      0.0   -9.90      1.7      0.9    57      0.0      0.0   100      1.7     0.9     57
     8    11  1996    -9    0      286.5     0.2      0.0    0.0    0.2    0.0      0.0      0.0   -9.90      2.1      0.5    24      0.0      0.0   100      2.1     0.5     24
     9    11  1996    -9    0      286.3     0.2      0.0    0.0    0.2    0.0      0.0      0.0   -9.90      1.9      0.5    25      0.0      0.0   100      1.9     0.5     25
    10    11  1996    -9    0      286.0     0.4      0.0    0.0    0.4    0.0      0.0      0.0   -9.90      2.2      0.7    31      0.0      0.0   100      2.2     0.7     31
    11    11  1996    -9    0      285.4     0.0      0.0    0.0    0.0    0.0      0.0      0.0   -9.90      3.9      0.6    14      0.0      0.0   100      3.9     0.6     14
    12    11  1996    -9    0      284.8     0.0      0.0    0.0    0.0    0.0      0.0      0.0   -9.90      4.7      0.6    13      0.0      0.0   100      4.7     0.6     13
    13    11  1996    -9    0      284.3     0.0      0.0    0.0    0.0    0.0      0.0      0.0   -9.90      4.1      0.5    12      0.0      0.0   100      4.1     0.5     12
    14    11  1996    -9    0      283.9     0.0      0.0    0.0    0.0    0.0      0.0      0.0   -9.90      3.9      0.4    11      0.0      0.0   100      3.9     0.4     11
    15    11  1996    -9    0      283.5     0.0      0.0    0.0    0.0    0.0      0.0      0.0   -9.90      3.7      0.4    11      0.0      0.0   100      3.7     0.4     11
    16    11  1996    -9    0      298.2    17.6      0.0    0.0   17.6    0.0      0.0      0.0   -9.90      2.9      2.9   100      0.0      0.0   100      2.9     2.9    100
    17    11  1996    -9    0      328.9    37.4      0.0    0.0   33.4    4.0      0.0      0.0   -9.90      2.8      2.8   100      0.0      0.0   100      2.8     2.8    100
    18    11  1996    -9    0      346.0    27.8      0.0    0.0   20.0    7.8      0.0      0.0   -9.90      2.9      2.9   100      0.0      0.0   100      2.9     2.9    100
    19    11  1996    -9    0      361.0    20.8      0.0    0.0   16.8    4.0      0.0      0.0   -9.90      1.8      1.8   100      0.0      0.0   100      1.8     1.8    100
    20    11  1996    -9    0      378.8    29.8      0.0    0.0   20.7    9.1      0.5      0.0   -9.90      2.4      2.4   100      0.0      0.0   100      2.4     2.4    100
    21    11  1996    -9    0      367.3     0.6      0.0    0.0    0.6    0.0     10.0      0.0   -9.90      2.2      2.1    95      0.0      0.0   100      2.2     2.1     95
    22    11  1996    -9    0      356.7     4.6      0.0    0.0    4.6    0.0     12.6      0.0   -9.90      2.6      2.6   100      0.0      0.0   100      2.6     2.6    100
    23    11  1996    -9    0      354.2    11.8      0.0    0.0   11.2    0.6     12.6      0.0   -9.90      1.1      1.1   100      0.0      0.0   100      1.1     1.1    100
    24    11  1996    -9    0      351.6     9.4      0.0    0.0    9.2    0.2     10.7      0.0   -9.90      1.2      1.2   100      0.0      0.0   100      1.2     1.2    100
    25    11  1996    -9    0      352.1    10.2      0.0    0.0    9.9    0.3      8.1      0.0   -9.90      1.3      1.3   100      0.0      0.0   100      1.3     1.3    100
    26    11  1996    -9    0      354.5    10.2      0.0    0.0    9.9    0.3      6.2      0.0   -9.90      1.3      1.3   100      0.0      0.0   100      1.3     1.3    100
    27    11  1996    -9    0      347.6     0.0      0.0    0.0    0.0    0.0      5.5      0.0   -9.90      1.3      1.3   100      0.0      0.0   100      1.3     1.3    100
    28    11  1996    -9    0      342.3     2.4      0.0    0.0    2.4    0.0      6.3      0.0   -9.90      1.4      1.4   100      0.0      0.0   100      1.4     1.4    100
    29    11  1996    -9    0      338.0     4.2      0.0    0.0    4.2    0.0      6.9      0.0   -9.90      1.7      1.7   100      0.0      0.0   100      1.7     1.7    100
    30    11  1996    -9    0      332.7     2.8      0.0    0.0    2.8    0.0      7.1      0.0   -9.90      1.0      1.0   100      0.0      0.0   100      1.0     1.0    100
     1    12  1996    -9    0      325.5     1.0      0.0    0.0    1.0    0.0      6.2      0.0   -9.90      2.1      2.0    97      0.0      0.0   100      2.1     2.0     97
     2    12  1996    -9    0      319.9     0.0      0.0    0.0    0.0    0.0      4.5      0.0   -9.90      1.5      1.1    72      0.0      0.0   100      1.5     1.1     72
     3    12  1996    -9    0      315.9     0.0      0.0    0.0    0.0    0.0      3.2      0.0   -9.90      1.4      0.9    60      0.0      0.0   100      1.4     0.9     60
     4    12  1996     1    1      312.9     0.0      0.0    0.0    0.0    0.0      2.2      0.0   -9.90      1.5      0.8    52      0.0      0.0   100      1.5     0.8     52
     5    12  1996     2    1      310.6     0.0      0.0    0.0    0.0    0.0      1.5      0.0   -9.90      1.5      0.7    46      0.0      0.0   100      1.5     0.7     46
     6    12  1996     3    1      309.1     0.0      0.0    0.0    0.0    0.0      1.0      0.0   -9.90      1.3      0.6    42      0.0      0.0   100      1.3     0.6     42
     7    12  1996     4    1      307.8     0.0      0.0    0.0    0.0    0.0      0.6      0.0   -9.90      1.7      0.6    39      0.0      0.0   100      1.7     0.6     39
     8    12  1996     5    1      307.0     0.0      0.0    0.0    0.0    0.0      0.4      0.0   -9.90      1.2      0.4    36      0.0      0.0   100      1.2     0.4     36
     9    12  1996     6    1      341.1    39.2      0.0    0.0   35.6    3.6      0.2      0.0   -9.90      1.2      1.2   100      0.0      0.0   100      1.2     1.2    100
    10    12  1996     7    1      342.4     3.0      0.0    0.0    3.0    0.0      0.4      0.0   -9.90      1.3      1.3   100      0.0      0.0   100      1.3     1.3    100
    11    12  1996     8    1      340.8     1.6      0.0    0.0    1.6    0.0      1.9      0.0   -9.90      1.3      1.3   100      0.0      0.0   100      1.3     1.3    100
    12    12  1996     9    1      351.0    19.2      0.0    0.0   16.0    3.2      4.8      0.0   -9.90      1.0      1.0   100      0.0      0.0   100      1.0     1.0    100
    13    12  1996    10    1      345.7     3.0      0.0    0.0    3.0    0.0      7.0      0.0   -9.90      1.2      1.2   100      0.0      0.0   100      1.2     1.2    100
    14    12  1996    11    1      354.4    22.2      0.0    0.0   17.5    4.7      7.3      0.0   -9.90      1.5      1.5   100      0.0      0.0   100      1.5     1.5    100
    15    12  1996    12    1      346.9     0.2      0.0    0.0    0.2    0.0      6.8      0.0   -9.90      1.0      1.0    96      0.0      0.0   100      1.0     1.0     96
    16    12  1996    13    1      339.6     0.4      0.0    0.0    0.4    0.0      6.8      0.0   -9.90      0.9      0.9    99      0.0      0.0   100      0.9     0.9     99
    17    12  1996    14    1      332.5     0.2      0.0    0.0    0.2    0.0      6.4      0.0   -9.90      1.0      0.9    95      0.0      0.0   100      1.0     0.9     95
    18    12  1996    15    1      326.0     0.0      0.0    0.0    0.0    0.0      5.8      0.0   -9.90      1.0      0.7    69      0.0      0.0   100      1.0     0.7     69
    19    12  1996    16    1      320.0     0.2      0.0    0.0    0.2    0.0      5.1      0.0   -9.90      1.1      1.1    96      0.0      0.0   100      1.1     1.1     96
    20    12  1996    17    1      320.9     5.8      0.0    0.0    5.8    0.0      3.6      0.0   -9.90      1.3      1.3   100      0.0      0.0   100      1.3     1.3    100
    21    12  1996    18    1      317.2     0.2      0.0    0.0    0.2    0.0      2.6      0.0   -9.90      1.4      1.3    93      0.0      0.0   100      1.4     1.3     93
    22    12  1996    19    1      314.4     0.0      0.0    0.0    0.0    0.0      1.6      0.0   -9.90      1.5      1.1    72      0.0      0.0   100      1.5     1.1     72
    23    12  1996    20    1      312.9     1.1      0.0    0.0    1.1    0.0      1.2      0.0   -9.90      1.4      1.4   100      0.0      0.0   100      1.4     1.4    100
    24    12  1996    21    1      315.9     5.1      0.0    0.0    5.1    0.0      0.9      0.0   -9.90      1.2      1.2   100      0.0      0.0   100      1.2     1.2    100
    25    12  1996    22    1      324.5    10.8      0.0    0.0   10.4    0.4      0.7      0.0   -9.90      1.0      1.0   100      0.1      0.1   100      1.1     1.1    100
    26    12  1996    23    2      322.5     0.2      0.0    0.0    0.2    0.0      0.6      0.0   -9.90      1.6      1.5    94      0.2      0.2   100      1.8     1.7     94
    27    12  1996    24    2      320.9     0.0      0.0    0.0    0.0    0.0      0.8      0.0   -9.90      1.1      0.7    63      0.1      0.1   100      1.2     0.8     67
    28    12  1996    25    2      319.0     0.0      0.0    0.0    0.0    0.0      1.3      0.0   -9.90      0.9      0.4    49      0.1      0.1   100      1.0     0.5     55
    29    12  1996    26    2      316.9     0.0      0.0    0.0    0.0    0.0      1.8      0.0   -9.90      0.6      0.3    43      0.1      0.1   100      0.7     0.3     50
    30    12  1996    27    2      314.7     0.2      0.0    0.0    0.2    0.0      1.8      0.0   -9.90      0.6      0.6    98      0.1      0.1   100      0.7     0.6     98
    31    12  1996    28    2      313.0     1.0      0.0    0.0    1.0    0.0      1.5      0.0   -9.90      1.1      1.1   100      0.1      0.1   100      1.2     1.2    100
     1     1  1997    29    2      317.7     6.2      0.0    0.0    6.2    0.0      1.0      0.0   -9.90      0.4      0.4   100      0.1      0.1   100      0.4     0.4    100
     2     1  1997    30    2      321.4     5.2      0.0    0.0    5.2    0.0      0.7      0.0   -9.90      0.8      0.8   100      0.1      0.1   100      0.9     0.9    100
     3     1  1997    31    2      330.1    10.3      0.0    0.0   10.0    0.3      0.5      0.0   -9.90      0.7      0.7   100      0.1      0.1   100      0.8     0.8    100
     4     1  1997    32    2      339.4    11.2      0.0    0.0   10.7    0.5      0.7      0.0   -9.90      0.6      0.6   100      0.1      0.1   100      0.7     0.7    100
     5     1  1997    33    2      350.3    14.4      0.0    0.0   13.1    1.3      1.4      0.0   -9.90      0.7      0.7   100      0.1      0.1   100      0.8     0.8    100
     6     1  1997    34    2      347.3     0.6      0.0    0.0    0.6    0.0      3.0      0.0   -9.90      0.6      0.6   100      0.1      0.1   100      0.7     0.7    100
     7     1  1997    35    2      341.8     0.0      0.0    0.0    0.0    0.0      4.8      0.0   -9.90      0.7      0.6    95      0.1      0.1   100      0.8     0.7     96
     8     1  1997    36    2      335.1     0.0      0.0    0.0    0.0    0.0      6.1      0.0   -9.90      0.7      0.4    59      0.1      0.1   100      0.9     0.6     65
     9     1  1997    37    2      335.1     6.9      0.0    0.0    6.9    0.0      6.4      0.0   -9.90      0.5      0.5   100      0.1      0.1   100      0.6     0.6    100
    10     1  1997    38    2      332.4     3.4      0.0    0.0    3.4    0.0      5.7      0.0   -9.90      0.3      0.3   100      0.1      0.1   100      0.3     0.3    100
    11     1  1997    39    2      327.0     0.0      0.0    0.0    0.0    0.0      4.5      0.0   -9.90      0.8      0.8   100      0.2      0.2   100      1.0     1.0    100
    12     1  1997    40    2      321.9     0.0      0.0    0.0    0.0    0.0      3.4      0.0   -9.90      1.4      1.4   100      0.3      0.3   100      1.7     1.7    100
    13     1  1997    41    2      317.4     0.0      0.0    0.0    0.0    0.0      2.8      0.0   -9.90      1.5      1.4    99      0.3      0.3   100      1.8     1.7     99
    14     1  1997    42    2      313.7     0.0      0.0    0.0    0.0    0.0      2.4      0.0   -9.90      1.3      1.0    80      0.3      0.3   100      1.5     1.3     84
    15     1  1997    43    2      310.8     0.0      0.0    0.0    0.0    0.0      1.9      0.0   -9.90      1.1      0.7    66      0.2      0.2   100      1.3     1.0     72
    16     1  1997    44    2      309.1     0.0      0.0    0.0    0.0    0.0      1.3      0.0   -9.90      0.5      0.3    58      0.1      0.1   100      0.7     0.4     66
    17     1  1997    45    2      308.0     0.2      0.0    0.0    0.2    0.0      0.8      0.0   -9.90      0.4      0.3    98      0.1      0.1   100      0.4     0.4     99
    18     1  1997    46    2      307.1     0.2      0.0    0.0    0.2    0.0      0.5      0.0   -9.90      0.4      0.4    99      0.1      0.1   100      0.6     0.5     99
    19     1  1997    47    2      306.7     0.2      0.0    0.0    0.2    0.0      0.3      0.0   -9.90      0.3      0.3   100      0.1      0.1   100      0.3     0.3    100
    20     1  1997    48    2      306.1     0.4      0.0    0.0    0.4    0.0      0.2      0.0   -9.90      0.6      0.6    99      0.2      0.2   100      0.8     0.8     99
    21     1  1997    49    2      305.8     1.0      0.0    0.0    1.0    0.0      0.1      0.0   -9.90      1.0      1.0   100      0.3      0.3   100      1.2     1.2    100
    22     1  1997    50    2      304.5     0.0      0.0    0.0    0.0    0.0      0.1      0.0   -9.90      0.9      0.9    95      0.3      0.3   100      1.2     1.2     96
    23     1  1997    51    2      303.4     0.0      0.0    0.0    0.0    0.0      0.0      0.0   -9.90      1.0      0.8    77      0.3      0.3   100      1.3     1.1     83
    24     1  1997    52    2      302.7     0.0      0.0    0.0    0.0    0.0      0.0      0.0   -9.90      0.7      0.4    67      0.2      0.2   100      0.9     0.7     75
    25     1  1997    53    2      302.1     0.0      0.0    0.0    0.0    0.0      0.0      0.0   -9.90      0.7      0.4    61      0.2      0.2   100      0.9     0.6     70
    26     1  1997    54    2      301.3     0.0      0.0    0.0    0.0    0.0      0.0      0.0   -9.90      0.9      0.5    55      0.3      0.3   100      1.2     0.8     66
    27     1  1997    55    2      300.5     0.0      0.0    0.0    0.0    0.0      0.0      0.0   -9.90      1.0      0.5    48      0.3      0.3   100      1.3     0.8     62
    28     1  1997    56    2      299.8     0.0      0.0    0.0    0.0    0.0      0.0      0.0   -9.90      0.9      0.4    43      0.3      0.3   100      1.2     0.7     59
    29     1  1997    57    2      298.8     0.0      0.0    0.0    0.0    0.0      0.0      0.0   -9.90      1.3      0.5    38      0.5      0.5   100      1.8     1.0     56
    30     1  1997    58    2      297.9     0.0      0.0    0.0    0.0    0.0      0.0      0.0   -9.90      1.1      0.4    34      0.4      0.4   100      1.5     0.8     53
    31     1  1997    59    2      297.2     0.0      0.0    0.0    0.0    0.0      0.0      0.0   -9.90      1.1      0.3    30      0.5      0.5   100      1.5     0.8     51
     1     2  1997    60    2      296.6     0.0      0.0    0.0    0.0    0.0      0.0      0.0   -9.90      0.8      0.2    27      0.4      0.4   100      1.2     0.6     49
     2     2  1997    61    2      295.8     0.2      0.0    0.0    0.2    0.0      0.0      0.0   -9.90      0.8      0.6    72      0.4      0.4   100      1.2     1.0     81
     3     2  1997    62    2      295.0     0.0      0.0    0.0    0.0    0.0      0.0      0.0   -9.90      0.8      0.5    55      0.4      0.4   100      1.2     0.8     69
     4     2  1997    63    2      294.9     0.6      0.0    0.0    0.6    0.0      0.0      0.0   -9.90      0.4      0.4   100      0.2      0.2   100      0.7     0.7    100
     5     2  1997    64    2      297.1     2.6      0.0    0.0    2.6    0.0      0.0      0.0   -9.90      0.3      0.3   100      0.1      0.1   100      0.4     0.4    100
     6     2  1997    65    2      296.6     0.8      0.0    0.0    0.8    0.0      0.0      0.0   -9.90      0.8      0.8   100      0.4      0.4   100      1.2     1.2    100
     7     2  1997    66    2      294.8     0.0      0.0    0.0    0.0    0.0      0.0      0.0   -9.90      1.4      1.0    73      0.8      0.8   100      2.2     1.8     82
     8     2  1997    67    2      293.5     0.0      0.0    0.0    0.0    0.0      0.0      0.0   -9.90      1.2      0.6    53      0.7      0.7   100      1.9     1.3     70
     9     2  1997    68    2      292.5     0.0      0.0    0.0    0.0    0.0      0.0      0.0   -9.90      1.1      0.4    43      0.6      0.6   100      1.7     1.0     63
    10     2  1997    69    2      291.8     0.0      0.0    0.0    0.0    0.0      0.0      0.0   -9.90      0.8      0.3    36      0.5      0.5   100      1.2     0.7     60
    11     2  1997    70    2      291.0     0.0      0.0    0.0    0.0    0.0      0.0      0.0   -9.90      0.8      0.3    32      0.5      0.5   100      1.3     0.8     58
    12     2  1997    71    2      290.4     0.0      0.0    0.0    0.0    0.0      0.0      0.0   -9.90      0.7      0.2    28      0.4      0.4   100      1.1     0.6     57
    13     2  1997    72    2      289.7     0.2      0.0    0.0    0.2    0.0      0.0      0.0   -9.90      0.8      0.3    44      0.5      0.5   100      1.3     0.9     67
    14     2  1997    73    2      288.8     0.0      0.0    0.0    0.0    0.0      0.0      0.0   -9.90      0.9      0.2    24      0.6      0.6   100      1.5     0.9     56
    15     2  1997    74    2      296.6     8.2      0.0    0.0    8.2    0.0      0.0      0.0   -9.90      0.2      0.2   100      0.2      0.2   100      0.4     0.4    100
    16     2  1997    75    2      295.6     1.2      0.0    0.0    1.2    0.0      0.0      0.0   -9.90      1.2      1.2   100      1.0      1.0   100      2.2     2.2    100
    17     2  1997    76    2      293.8     0.0      0.0    0.0    0.0    0.0      0.0      0.0   -9.90      1.2      0.8    72      0.9      0.9   100      2.1     1.8     85
    18     2  1997    77    2      292.3     0.0      0.0    0.0    0.0    0.0      0.0      0.0   -9.90      1.1      0.6    50      1.0      1.0   100      2.1     1.5     73
    19     2  1997    78    2      290.8     0.0      0.0    0.0    0.0    0.0      0.0      0.0   -9.90      1.1      0.5    44      1.0      1.0   100      2.1     1.5     70
    20     2  1997    79    2      289.3     0.0      0.0    0.0    0.0    0.0      0.0      0.0   -9.90      1.1      0.5    40      1.1      1.1   100      2.2     1.5     69
    21     2  1997    80    2      288.3     0.0      0.0    0.0    0.0    0.0      0.0      0.0   -9.90      0.8      0.3    37      0.8      0.8   100      1.5     1.0     68
    22     2  1997    81    2      287.1     0.0      0.0    0.0    0.0    0.0      0.0      0.0   -9.90      0.8      0.3    34      0.8      0.8   100      1.7     1.1     68
    23     2  1997    82    2      286.0     0.0      0.0    0.0    0.0    0.0      0.0      0.0   -9.90      0.8      0.3    32      0.9      0.9   100      1.8     1.2     67
    24     2  1997    83    2      286.0     0.9      0.0    0.0    0.9    0.0      0.0      0.0   -9.90      0.4      0.4   100      0.5      0.5   100      0.9     0.9    100
    25     2  1997    84    2      285.1     0.0      0.0    0.0    0.0    0.0      0.0      0.0   -9.90      0.4      0.4   100      0.5      0.5   100      0.9     0.9    100
    26     2  1997    85    2      284.5     0.0      0.0    0.0    0.0    0.0      0.0      0.0   -9.90      0.3      0.2    61      0.4      0.4   100      0.8     0.6     83
    27     2  1997    86    2      285.8     3.4      0.0    0.0    3.4    0.0      0.0      0.0   -9.90      0.9      0.9   100      1.2      1.2   100      2.1     2.1    100
    28     2  1997    87    2      283.5     0.0      0.0    0.0    0.0    0.0      0.0      0.0   -9.90      0.9      0.9   100      1.4      1.4   100      2.3     2.3    100
     1     3  1997    88    2      280.8     0.0      0.0    0.0    0.0    0.0      0.0      0.0   -9.90      1.1      1.1   100      1.6      1.6   100      2.6     2.6    100
     2     3  1997    89    2      278.2     0.0      0.0    0.0    0.0    0.0      0.0      0.0   -9.90      1.2      0.8    68      1.8      1.8   100      3.0     2.6     87
     3     3  1997    90    2      275.8     0.0      0.0    0.0    0.0    0.0      0.0      0.0   -9.90      1.2      0.5    39      2.0      2.0   100      3.2     2.4     77
     4     3  1997    91    2      273.6     0.0      0.0    0.0    0.0    0.0      0.0      0.0   -9.90      1.0      0.4    35      1.8      1.8   100      2.9     2.2     76
     5     3  1997    92    2      272.3     0.0      0.0    0.0    0.0    0.0      0.0      0.0   -9.90      0.6      0.2    33      1.2      1.2   100      1.8     1.4     77
     6     3  1997    93    2      271.1     0.0      0.0    0.0    0.0    0.0      0.0      0.0   -9.90      0.5      0.1    31      1.0      1.0   100      1.4     1.1     78
     7     3  1997    94    2      268.5     0.0      0.0    0.0    0.0    0.0      0.0      0.0   -9.90      1.0      0.3    29      2.4      2.4   100      3.4     2.7     78
     8     3  1997    95    2      266.0     0.0      0.0    0.0    0.0    0.0      0.0      0.0   -9.90      0.9      0.2    27      2.2      2.2   100      3.1     2.4     79
     9     3  1997    96    2      263.7     0.0      0.0    0.0    0.0    0.0      0.0      0.0   -9.90      0.8      0.2    26      2.1      2.1   100      3.0     2.4     79
    10     3  1997    97    2      260.8     0.0      0.0    0.0    0.0    0.0      0.0      0.0   -9.90      1.0      0.2    24      2.6      2.6   100      3.6     2.9     80
    11     3  1997    98    2      258.6     0.0      0.0    0.0    0.0    0.0      0.0      0.0   -9.90      0.7      0.2    23      2.0      2.0   100      2.8     2.2     80
    12     3  1997    99    2      255.8     0.0      0.0    0.0    0.0    0.0      0.0      0.0   -9.90      0.9      0.2    22      2.6      2.6   100      3.5     2.8     80
    13     3  1997   100    2      253.3     0.0      0.0    0.0    0.0    0.0      0.0      0.0   -9.90      0.8      0.2    21      2.4      2.4   100      3.2     2.5     79
    14     3  1997   101    2      251.3     0.0      0.0    0.0    0.0    0.0      0.0      0.0   -9.90      0.7      0.1    20      2.0      1.8    94      2.6     2.0     75
    15     3  1997   102    2      249.4     0.0      0.0    0.0    0.0    0.0      0.0      0.0   -9.90      0.7      0.1    19      2.0      1.7    85      2.8     1.9     68
    16     3  1997   103    2      247.5     0.0      0.0    0.0    0.0    0.0      0.0      0.0   -9.90      0.9      0.2    19      2.4      1.8    74      3.3     2.0     59
    17     3  1997   104    2      245.9     0.0      0.0    0.0    0.0    0.0      0.0      0.0   -9.90      0.7      0.1    18      2.1      1.4    68      2.9     1.6     55
    18     3  1997   105    2      244.5     0.0      0.0    0.0    0.0    0.0      0.0      0.0   -9.90      0.7      0.1    17      2.0      1.2    61      2.7     1.4     50
    19     3  1997   106    2      243.3     0.0      0.0    0.0    0.0    0.0      0.0      0.0   -9.90      0.7      0.1    17      1.9      1.1    56      2.6     1.2     46
    20     3  1997   107    2      242.1     0.0      0.0    0.0    0.0    0.0      0.0      0.0   -9.90      0.8      0.1    16      2.2      1.1    49      3.1     1.2     40
    21     3  1997   108    2      241.0     0.0      0.0    0.0    0.0    0.0      0.0      0.0   -9.90      0.8      0.1    16      2.2      1.0    44      2.9     1.1     36
    22     3  1997   109    2      240.2     0.0      0.0    0.0    0.0    0.0      0.0      0.0   -9.90      0.7      0.1    15      1.9      0.8    41      2.6     0.9     34
    23     3  1997   110    2      239.5     0.0      0.0    0.0    0.0    0.0      0.0      0.0   -9.90      0.5      0.1    15      1.4      0.6    39      2.0     0.6     32
    24     3  1997   111    2      255.7    17.2      0.0    0.0   17.2    0.0      0.0      0.0   -9.90      0.3      0.3   100      0.7      0.7   100      1.0     1.0    100
    25     3  1997   112    2      263.4    10.2      0.0    0.0   10.2    0.0      0.0      0.0   -9.90      0.6      0.6   100      1.9      1.9   100      2.5     2.5    100
    26     3  1997   113    2      259.7     0.0      0.0    0.0    0.0    0.0      0.0      0.0   -9.90      0.9      0.9   100      2.7      2.7   100      3.6     3.6    100
    27     3  1997   114    2      256.4     0.0      0.0    0.0    0.0    0.0      0.0      0.0   -9.90      0.8      0.8   100      2.5      2.5   100      3.3     3.3    100
    28     3  1997   115    2      254.1     0.0      0.0    0.0    0.0    0.0      0.0      0.0   -9.90      0.6      0.6   100      1.8      1.8   100      2.3     2.3    100
    29     3  1997   116    2      256.1     5.6      0.0    0.0    5.6    0.0      0.0      0.0   -9.90      0.9      0.9   100      2.8      2.8   100      3.6     3.6    100
    30     3  1997   117    2      252.8     0.0      0.0    0.0    0.0    0.0      0.0      0.0   -9.90      0.8      0.8   100      2.6      2.5    98      3.4     3.4     99
    31     3  1997   118    2      249.3     0.0      0.0    0.0    0.0    0.0      0.0      0.0   -9.90      1.0      1.0   100      3.1      2.5    80      4.1     3.4     84
     1     4  1997   119    2      246.8     0.0      0.0    0.0    0.0    0.0      0.0      0.0   -9.90      0.8      0.8   100      2.5      1.8    70      3.3     2.6     77
     2     4  1997   120    2      244.9     0.0      0.0    0.0    0.0    0.0      0.0      0.0   -9.90      0.6      0.6   100      1.9      1.2    64      2.5     1.8     73
     3     4  1997   121    2      242.6     0.0      0.0    0.0    0.0    0.0      0.0      0.0   -9.90      0.9      0.9   100      2.9      1.4    49      3.8     2.4     62
     4     4  1997   122    2      240.9     0.0      0.0    0.0    0.0    0.0      0.0      0.0   -9.90      0.7      0.7    93      2.3      1.0    43      3.1     1.7     55
     5     4  1997   123    2      239.5     0.0      0.0    0.0    0.0    0.0      0.0      0.0   -9.90      0.9      0.3    38      2.8      1.0    36      3.7     1.3     36
     6     4  1997   124    2      238.8     0.0      0.0    0.0    0.0    0.0      0.0      0.0   -9.90      0.5      0.2    35      1.5      0.5    35      2.0     0.7     35
     7     4  1997   125    2      237.7     0.0      0.0    0.0    0.0    0.0      0.0      0.0   -9.90      1.0      0.3    33      3.1      0.8    26      4.1     1.2     28
     8     4  1997   126    2      236.7     0.0      0.0    0.0    0.0    0.0      0.0      0.0   -9.90      1.0      0.3    31      2.9      0.7    22      3.9     1.0     24
     9     4  1997   127    2      236.0     0.0      0.0    0.0    0.0    0.0      0.0      0.0   -9.90      0.8      0.2    29      2.4      0.5    20      3.2     0.7     22
    10     4  1997   128    2      235.3     0.0      0.0    0.0    0.0    0.0      0.0      0.0   -9.90      0.9      0.2    27      2.6      0.4    16      3.5     0.7     19
    11     4  1997   129    2      234.8     0.0      0.0    0.0    0.0    0.0      0.0      0.0   -9.90      0.8      0.2    25      2.4      0.3    14      3.2     0.5     17
    12     4  1997   130    2      234.4     0.2      0.0    0.0    0.2    0.0      0.0      0.0   -9.90      0.8      0.3    44      2.2      0.3    12      3.0     0.6     20
    13     4  1997   131    2      233.9     0.0      0.0    0.0    0.0    0.0      0.0      0.0   -9.90      1.0      0.2    23      2.9      0.3     9      4.0     0.5     13
    14     4  1997   132    2      233.5     0.0      0.0    0.0    0.0    0.0      0.0      0.0   -9.90      0.7      0.2    22      2.0      0.2     8      2.8     0.3     12
    15     4  1997   133    2      233.3     0.0      0.0    0.0    0.0    0.0      0.0      0.0   -9.90      0.5      0.1    21      1.5      0.1     8      2.0     0.2     11
    16     4  1997   134    2      232.9     0.0      0.0    0.0    0.0    0.0      0.0      0.0   -9.90      1.1      0.2    20      2.9      0.1     5      3.9     0.4      9
    17     4  1997   135    2      232.6     0.0      0.0    0.0    0.0    0.0      0.0      0.0   -9.90      1.1      0.2    19      2.8      0.1     4      3.9     0.3      8
    18     4  1997   136    2      232.4     0.0      0.0    0.0    0.0    0.0      0.0      0.0   -9.90      1.1      0.2    18      2.9      0.1     3      4.0     0.3      7
    19     4  1997   137    2      232.2     0.0      0.0    0.0    0.0    0.0      0.0      0.0   -9.90      0.9      0.2    17      2.4      0.0     2      3.4     0.2      6
    20     4  1997   138    2      232.8     0.8      0.0    0.0    0.8    0.0      0.0      0.0   -9.90      0.1      0.1   100      0.3      0.0     6      0.4     0.1     33
    21     4  1997   139    2      286.0    54.4      0.0    0.0   53.4    1.0      0.0      0.0   -9.90      0.1      0.1   100      0.2      0.2   100      0.2     0.2    100
    22     4  1997   140    2      299.4    16.0      0.0    0.0   14.1    1.9      0.0      0.0   -9.90      0.2      0.2   100      0.5      0.5   100      0.7     0.7    100
    23     4  1997   141    2      296.6     0.0      0.0    0.0    0.0    0.0      0.0      0.0   -9.90      0.7      0.7   100      2.1      2.1   100      2.8     2.8    100
    24     4  1997   142    2      292.6     0.0      0.0    0.0    0.0    0.0      0.0      0.0   -9.90      1.0      1.0   100      3.0      3.0   100      4.0     4.0    100
    25     4  1997   143    2      288.3     0.0      0.0    0.0    0.0    0.0      0.0      0.0   -9.90      1.0      1.0   100      3.3      3.3   100      4.3     4.3    100
    26     4  1997   144    2      285.3     0.0      0.0    0.0    0.0    0.0      0.0      0.0   -9.90      0.7      0.7   100      2.3      2.3   100      3.0     3.0    100
    27     4  1997   145    2      298.1    14.8      0.0    0.0   14.8    0.0      0.0      0.0   -9.90      0.4      0.4   100      1.6      1.6   100      2.0     2.0    100
    28     4  1997   146    2      306.6    12.2      0.0    0.0   11.5    0.7      0.0      0.0   -9.90      0.6      0.6   100      2.5      2.5   100      3.1     3.1    100
    29     4  1997   147    2      309.5     4.6      0.0    0.0    4.6    0.0      0.0      0.0   -9.90      0.3      0.3   100      1.3      1.3   100      1.7     1.7    100
    30     4  1997   148    2      307.1     0.0      0.0    0.0    0.0    0.0      0.0      0.0   -9.90      0.5      0.5   100      2.0      2.0   100      2.4     2.4    100
     1     5  1997   149    2      302.5     0.0      0.0    0.0    0.0    0.0      0.0      0.0   -9.90      0.8      0.8   100      3.8      3.8   100      4.6     4.6    100
     2     5  1997   150    2      297.4     0.0      0.0    0.0    0.0    0.0      0.0      0.0   -9.90      0.9      0.9   100      4.2      4.2   100      5.1     5.1    100
     3     5  1997   151    2      292.7     0.0      0.0    0.0    0.0    0.0      0.0      0.0   -9.90      0.8      0.8   100      4.0      4.0   100      4.7     4.7    100
     4     5  1997   152    2      288.0     0.0      0.0    0.0    0.0    0.0      0.0      0.0   -9.90      0.7      0.7   100      4.0      4.0   100      4.7     4.7    100
     5     5  1997   153    2      284.3     0.2      0.0    0.0    0.2    0.0      0.0      0.0   -9.90      0.6      0.5    91      3.4      3.4   100      4.0     3.9     99
     6     5  1997   154    2      279.6     0.4      0.0    0.0    0.4    0.0      0.0      0.0   -9.90      0.7      0.6    81      4.5      4.5   100      5.2     5.0     97
     7     5  1997   155    2      280.0     4.0      0.0    0.0    4.0    0.0      0.0      0.0   -9.90      0.5      0.5   100      3.2      3.2   100      3.6     3.6    100
     8     5  1997   156    2      302.3    23.4      0.0    0.0   23.4    0.0      0.0      0.0   -9.90      0.1      0.1   100      1.0      1.0   100      1.1     1.1    100
     9     5  1997   157    2      298.8     0.0      0.0    0.0    0.0    0.0      0.0      0.0   -9.90      0.4      0.4   100      3.1      3.1   100      3.5     3.5    100
    10     5  1997   158    2      294.5     0.0      0.0    0.0    0.0    0.0      0.0      0.0   -9.90      0.5      0.5   100      3.8      3.8   100      4.3     4.3    100
    11     5  1997   159    2      290.1     0.2      0.0    0.0    0.2    0.0      0.0      0.0   -9.90      0.5      0.5    99      4.1      4.1   100      4.6     4.6    100
    12     5  1997   160    2      285.5     0.0      0.0    0.0    0.0    0.0      0.0      0.0   -9.90      0.5      0.3    53      4.3      4.3   100      4.8     4.6     95
    13     5  1997   161    2      280.6     0.0      0.0    0.0    0.0    0.0      0.0      0.0   -9.90      0.5      0.2    28      4.7      4.7   100      5.3     4.9     93
    14     5  1997   162    2      275.7     0.0      0.0    0.0    0.0    0.0      0.0      0.0   -9.90      0.5      0.1    21      4.8      4.8   100      5.3     4.9     92
    15     5  1997   163    2      270.5     0.0      0.0    0.0    0.0    0.0      0.0      0.0   -9.90      0.5      0.1    17      5.1      5.1   100      5.6     5.2     92
    16     5  1997   164    2      267.3     0.8      0.0    0.0    0.8    0.0      0.0      0.0   -9.90      0.4      0.4   100      3.7      3.7   100      4.1     4.1    100
    17     5  1997   165    2      262.2     0.0      0.0    0.0    0.0    0.0      0.0      0.0   -9.90      0.4      0.4    99      4.6      4.6   100      5.1     5.1    100
    18     5  1997   166    2      257.8     0.0      0.0    0.0    0.0    0.0      0.0      0.0   -9.90      0.4      0.3    67      4.1      4.1   100      4.5     4.4     97
    19     5  1997   167    2      253.6     0.2      0.0    0.0    0.2    0.0      0.0      0.0   -9.90      0.4      0.3    82      4.1      4.1   100      4.5     4.4     98
    20     5  1997   168    3      250.0     0.0      0.0    0.0    0.0    0.0      0.0      0.0   -9.90      0.4      0.2    61      3.9      3.3    84      4.3     3.5     82
    21     5  1997   169    3      263.2    15.4      0.0    0.0   15.4    0.0      0.0      0.0   -9.90      0.2      0.2   100      2.0      2.0   100      2.2     2.2    100
    22     5  1997   170    3      263.9     4.6      0.0    0.0    4.6    0.0      0.0      0.0   -9.90      0.3      0.3   100      3.6      3.6   100      4.0     4.0    100
    23     5  1997   171    3      259.4     0.2      0.0    0.0    0.2    0.0      0.0      0.0   -9.90      0.4      0.4   100      4.3      4.3   100      4.7     4.7    100
    24     5  1997   172    3      255.3     0.2      0.0    0.0    0.2    0.0      0.0      0.0   -9.90      0.4      0.4    99      3.9      3.9   100      4.3     4.3    100
    25     5  1997   173    3      251.1     0.0      0.0    0.0    0.0    0.0      0.0      0.0   -9.90      0.4      0.2    50      4.6      4.0    87      5.0     4.2     84
    26     5  1997   174    3      247.9     0.0      0.0    0.0    0.0    0.0      0.0      0.0   -9.90      0.4      0.1    27      4.3      3.1    73      4.7     3.2     69
    27     5  1997   175    3      244.9     0.0      0.0    0.0    0.0    0.0      0.0      0.0   -9.90      0.5      0.1    26      4.8      2.8    59      5.2     2.9     56
    28     5  1997   176    3      242.4     0.0      0.0    0.0    0.0    0.0      0.0      0.0   -9.90      0.5      0.1    26      5.3      2.4    46      5.9     2.6     44
    29     5  1997   177    3      240.1     0.0      0.0    0.0    0.0    0.0      0.0      0.0   -9.90      0.6      0.2    25      6.2      2.1    35      6.8     2.3     34
    30     5  1997   178    3      238.6     0.4      0.0    0.0    0.4    0.0      0.0      0.0   -9.90      0.5      0.5    95      4.8      1.4    30      5.3     1.9     36
    31     5  1997   179    3      237.2     0.0      0.0    0.0    0.0    0.0      0.0      0.0   -9.90      0.5      0.3    69      4.6      1.1    24      5.0     1.4     28
     1     6  1997   180    3      284.6    51.0      0.0    0.0   50.4    0.6      0.0      0.0   -9.90      0.3      0.3   100      2.7      2.7   100      3.0     3.0    100
     2     6  1997   181    3      288.4     6.6      0.0    0.0    6.6    0.0      0.0      0.0   -9.90      0.3      0.3   100      2.5      2.5   100      2.8     2.8    100
     3     6  1997   182    4      285.1     0.2      0.0    0.0    0.2    0.0      0.0      0.0   -9.90      0.3      0.3   100      3.2      3.2   100      3.5     3.5    100
     4     6  1997   183    4      281.2     0.0      0.0    0.0    0.0    0.0      0.0      0.0   -9.90      0.4      0.2    50      3.7      3.7   100      4.2     3.9     95
     5     6  1997   184    4      290.4    10.8      0.0    0.0   10.4    0.4      0.0      0.0   -9.90      0.1      0.1   100      1.1      1.1   100      1.2     1.2    100
     6     6  1997   185    4      294.2     6.6      0.0    0.0    6.6    0.0      0.0      0.0   -9.90      0.3      0.3   100      2.5      2.5   100      2.8     2.8    100
     7     6  1997   186    4      289.9     0.2      0.0    0.0    0.2    0.0      0.0      0.0   -9.90      0.5      0.4    99      4.1      4.1   100      4.6     4.6    100
     8     6  1997   187    4      285.2     0.0      0.0    0.0    0.0    0.0      0.0      0.0   -9.90      0.5      0.3    53      4.4      4.4   100      4.9     4.6     95
     9     6  1997   188    4      280.4     0.0      0.0    0.0    0.0    0.0      0.0      0.0   -9.90      0.5      0.2    32      4.7      4.7   100      5.2     4.8     93
    10     6  1997   189    4      275.6     0.0      0.0    0.0    0.0    0.0      0.0      0.0   -9.90      0.5      0.1    20      4.7      4.7   100      5.2     4.8     92
    11     6  1997   190    4      271.4     0.0      0.0    0.0    0.0    0.0      0.0      0.0   -9.90      0.5      0.1    12      4.2      4.2   100      4.7     4.2     91
    12     6  1997   191    4      266.3     0.0      0.0    0.0    0.0    0.0      0.0      0.0   -9.90      0.6      0.1    10      5.0      5.0   100      5.6     5.1     91
    13     6  1997   192    4      262.5     0.0      0.0    0.0    0.0    0.0      0.0      0.0   -9.90      0.4      0.0     8      3.7      3.7   100      4.1     3.7     91
    14     6  1997   193    4      258.1     0.0      0.0    0.0    0.0    0.0      0.0      0.0   -9.90      0.5      0.0     8      4.4      4.4   100      4.8     4.4     91
    15     6  1997   194    4      253.0     0.0      0.0    0.0    0.0    0.0      0.0      0.0   -9.90      0.6      0.1     8      5.8      5.1    88      6.4     5.1     80
    16     6  1997   195    4      249.1     0.0      0.0    0.0    0.0    0.0      0.0      0.0   -9.90      0.6      0.0     8      5.2      3.8    74      5.7     3.9     67
    17     6  1997   196    4      246.1     0.0      0.0    0.0    0.0    0.0      0.0      0.0   -9.90      0.6      0.0     8      4.9      3.0    61      5.5     3.1     56
    18     6  1997   197    4      244.0     0.0      0.0    0.0    0.0    0.0      0.0      0.0   -9.90      0.5      0.0     8      3.8      2.1    55      4.2     2.1     50
    19     6  1997   198    4      247.3     6.6      0.0    0.0    6.6    0.0      0.0      0.0   -9.90      0.5      0.5   100      3.9      2.7    70      4.4     3.2     73
    20     6  1997   199    4      244.5     0.0      0.0    0.0    0.0    0.0      0.0      0.0   -9.90      0.5      0.5   100      4.1      2.3    56      4.7     2.9     61
    21     6  1997   200    4      242.6     0.2      0.0    0.0    0.2    0.0      0.0      0.0   -9.90      0.5      0.4    80      3.6      1.7    49      4.0     2.1     53
    22     6  1997   201    4      240.4     0.0      0.0    0.0    0.0    0.0      0.0      0.0   -9.90      0.7      0.4    62      4.8      1.7    36      5.5     2.2     39
    23     6  1997   202    4      238.8     0.0      0.0    0.0    0.0    0.0      0.0      0.0   -9.90      0.6      0.3    56      4.1      1.2    31      4.7     1.6     34
    24     6  1997   203    4      237.4     0.0      0.0    0.0    0.0    0.0      0.0      0.0   -9.90      0.7      0.3    52      4.2      1.0    24      4.8     1.4     28
    25     6  1997   204    4      236.3     0.0      0.0    0.0    0.0    0.0      0.0      0.0   -9.90      0.7      0.3    47      4.1      0.8    19      4.8     1.1     23
    26     6  1997   205    4      235.5     0.0      0.0    0.0    0.0    0.0      0.0      0.0   -9.90      0.6      0.3    44      3.4      0.6    17      4.0     0.8     21
    27     6  1997   206    4      234.6     0.0      0.0    0.0    0.0    0.0      0.0      0.0   -9.90      0.8      0.3    41      4.6      0.5    12      5.5     0.9     16
    28     6  1997   207    4      233.9     0.0      0.0    0.0    0.0    0.0      0.0      0.0   -9.90      0.8      0.3    38      4.2      0.4     9      5.0     0.7     14
    29     6  1997   208    4      233.4     0.0      0.0    0.0    0.0    0.0      0.0      0.0   -9.90      0.8      0.3    35      3.9      0.3     7      4.6     0.5     12
    30     6  1997   209    4      233.0     0.0      0.0    0.0    0.0    0.0      0.0      0.0   -9.90      0.7      0.2    33      3.2      0.2     5      3.9     0.4     10
     1     7  1997   210    4      232.6     0.0      0.0    0.0    0.0    0.0      0.0      0.0   -9.90      0.8      0.2    31      3.4      0.1     4      4.2     0.4      9
     2     7  1997   211    4      232.4     0.0      0.0    0.0    0.0    0.0      0.0      0.0   -9.90      0.8      0.2    29      3.1      0.1     2      3.8     0.3      8
     3     7  1997   212    4      232.0     0.0      0.0    0.0    0.0    0.0      0.0      0.0   -9.90      1.1      0.3    27      4.2      0.0     1      5.3     0.3      6
     4     7  1997   213    4      231.8     0.0      0.0    0.0    0.0    0.0      0.0      0.0   -9.90      0.8      0.2    25      2.8      0.0     0      3.7     0.2      6
     5     7  1997   214    4      233.0     2.2      0.0    0.0    2.2    0.0      0.0      0.0   -9.90      0.9      0.9   100      2.7      0.1     5      3.6     1.0     28
     6     7  1997   215    4      232.1     0.0      0.0    0.0    0.0    0.0      0.0      0.0   -9.90      0.9      0.9   100      2.7      0.0     1      3.6     0.9     26
     7     7  1997   216    4      231.5     0.0      0.0    0.0    0.0    0.0      0.0      0.0   -9.90      1.1      0.6    52      3.0      0.0     0      4.1     0.6     14
     8     7  1997   217    4      231.2     0.0      0.0    0.0    0.0    0.0      0.0      0.0   -9.90      1.3      0.3    23      3.2      0.0     0      4.5     0.3      7
     9     7  1997   218    4      230.9     0.0      0.0    0.0    0.0    0.0      0.0      0.0   -9.90      1.3      0.3    21      2.8      0.0     0      4.0     0.3      7
    10     7  1997   219    4      230.7     0.0      0.0    0.0    0.0    0.0      0.0      0.0   -9.90      1.3      0.3    20      2.6      0.0     0      3.9     0.3      7
    11     7  1997   220    4      230.4     0.0      0.0    0.0    0.0    0.0      0.0      0.0   -9.90      1.4      0.2    18      2.4      0.0     0      3.8     0.2      7
    12     7  1997   221    4      230.2     0.4      0.0    0.0    0.4    0.0      0.0      0.0   -9.90      1.3      0.6    42      2.1      0.0     0      3.4     0.6     17
    13     7  1997   222    4      230.0     0.0      0.0    0.0    0.0    0.0      0.0      0.0   -9.90      1.4      0.2    16      1.9      0.0     0      3.3     0.2      7
    14     7  1997   223    4      229.8     0.2      0.0    0.0    0.2    0.0      0.0      0.0   -9.90      1.5      0.4    27      1.7      0.0     0      3.2     0.4     12
    15     7  1997   224    4      229.6     0.2      0.0    0.0    0.2    0.0      0.0      0.0   -9.90      1.5      0.4    26      1.4      0.0     0      3.0     0.4     13
    16     7  1997   225    4      229.3     0.0      0.0    0.0    0.0    0.0      0.0      0.0   -9.90      2.0      0.3    14      1.4      0.0     0      3.4     0.3      8
    17     7  1997   226    4      229.1     0.0      0.0    0.0    0.0    0.0      0.0      0.0   -9.90      1.8      0.2    13      0.9      0.0     0      2.7     0.2      9
    18     7  1997   227    4      237.9    10.6      0.0    0.0   10.6    0.0      0.0      0.0   -9.90      1.7      1.7   100      0.5      0.1    24      2.2     1.8     82
    19     7  1997   228    4      235.6     0.0      0.0    0.0    0.0    0.0      0.0      0.0   -9.90      2.2      2.2   100      0.4      0.1    14      2.7     2.3     86
    20     7  1997   229    4      233.1     0.0      0.0    0.0    0.0    0.0      0.0      0.0   -9.90      2.5      2.5   100      0.2      0.0     5      2.7     2.5     92
    21     7  1997   230    4      230.1     0.0      0.0    0.0    0.0    0.0      0.0      0.0   -9.90      2.9      2.9   100      0.0      0.0   100      2.9     2.9    100
    22     7  1997    -9    0      229.3     0.2      0.0    0.0    0.2    0.0      0.0      0.0   -9.90      5.9      1.1    18      0.0      0.0   100      5.9     1.1     18
    23     7  1997    -9    0      228.5     0.0      0.0    0.0    0.0    0.0      0.0      0.0   -9.90      6.9      0.8    12      0.0      0.0   100      6.9     0.8     12
    24     7  1997    -9    0      228.0     0.0      0.0    0.0    0.0    0.0      0.0      0.0   -9.90      5.3      0.5    10      0.0      0.0   100      5.3     0.5     10
    25     7  1997    -9    0      227.7     2.2      0.0    0.0    2.2    0.0      0.0      0.0   -9.90      4.7      2.4    51      0.0      0.0   100      4.7     2.4     51
    26     7  1997    -9    0      227.3     0.2      0.0    0.0    0.2    0.0      0.0      0.0   -9.90      6.2      0.7    11      0.0      0.0   100      6.2     0.7     11
    27     7  1997    -9    0      226.9     0.0      0.0    0.0    0.0    0.0      0.0      0.0   -9.90      5.6      0.4     7      0.0      0.0   100      5.6     0.4      7
    28     7  1997    -9    0      226.4     0.0      0.0    0.0    0.0    0.0      0.0      0.0   -9.90      6.4      0.4     7      0.0      0.0   100      6.4     0.4      7
    29     7  1997    -9    0      226.1     0.0      0.0    0.0    0.0    0.0      0.0      0.0   -9.90      6.2      0.4     6      0.0      0.0   100      6.2     0.4      6
    30     7  1997    -9    0      225.6     0.0      0.0    0.0    0.0    0.0      0.0      0.0   -9.90      7.5      0.4     6      0.0      0.0   100      7.5     0.4      6
    31     7  1997    -9    0      225.2     0.0      0.0    0.0    0.0    0.0      0.0      0.0   -9.90      7.6      0.4     6      0.0      0.0   100      7.6     0.4      6
     1     8  1997    -9    0      224.9     0.0      0.0    0.0    0.0    0.0      0.0      0.0   -9.90      5.0      0.3     5      0.0      0.0   100      5.0     0.3      5
     2     8  1997    -9    0      224.6     0.0      0.0    0.0    0.0    0.0      0.0      0.0   -9.90      7.3      0.4     5      0.0      0.0   100      7.3     0.4      5
     3     8  1997    -9    0      224.3     0.0      0.0    0.0    0.0    0.0      0.0      0.0   -9.90      6.2      0.3     5      0.0      0.0   100      6.2     0.3      5
     4     8  1997    -9    0      223.9     0.0      0.0    0.0    0.0    0.0      0.0      0.0   -9.90      6.6      0.3     5      0.0      0.0   100      6.6     0.3      5
     5     8  1997    -9    0      223.7     0.0      0.0    0.0    0.0    0.0      0.0      0.0   -9.90      5.4      0.2     5      0.0      0.0   100      5.4     0.2      5
     6     8  1997    -9    0      223.6     0.8      0.0    0.0    0.8    0.0      0.0      0.0   -9.90      3.4      0.9    27      0.0      0.0   100      3.4     0.9     27
     7     8  1997    -9    0      223.4     0.0      0.0    0.0    0.0    0.0      0.0      0.0   -9.90      4.3      0.2     4      0.0      0.0   100      4.3     0.2      4
     8     8  1997    -9    0      223.2     0.2      0.0    0.0    0.2    0.0      0.0      0.0   -9.90      6.2      0.4     7      0.0      0.0   100      6.2     0.4      7
     9     8  1997    -9    0      222.9     0.0      0.0    0.0    0.0    0.0      0.0      0.0   -9.90      6.3      0.2     4      0.0      0.0   100      6.3     0.2      4
    10     8  1997    -9    0      222.6     0.0      0.0    0.0    0.0    0.0      0.0      0.0   -9.90      8.1      0.3     4      0.0      0.0   100      8.1     0.3      4
    11     8  1997    -9    0      222.3     0.0      0.0    0.0    0.0    0.0      0.0      0.0   -9.90      6.7      0.2     4      0.0      0.0   100      6.7     0.2      4
    12     8  1997    -9    0      222.1     0.0      0.0    0.0    0.0    0.0      0.0      0.0   -9.90      7.5      0.3     3      0.0      0.0   100      7.5     0.3      3
    13     8  1997    -9    0      221.8     0.0      0.0    0.0    0.0    0.0      0.0      0.0   -9.90      7.7      0.3     3      0.0      0.0   100      7.7     0.3      3
    14     8  1997    -9    0      221.6     0.0      0.0    0.0    0.0    0.0      0.0      0.0   -9.90      7.4      0.2     3      0.0      0.0   100      7.4     0.2      3
    15     8  1997    -9    0      221.4     0.0      0.0    0.0    0.0    0.0      0.0      0.0   -9.90      7.0      0.2     3      0.0      0.0   100      7.0     0.2      3
    16     8  1997    -9    0      221.2     0.0      0.0    0.0    0.0    0.0      0.0      0.0   -9.90      5.8      0.2     3      0.0      0.0   100      5.8     0.2      3
    17     8  1997    -9    0      221.0     0.0      0.0    0.0    0.0    0.0      0.0      0.0   -9.90      5.8      0.2     3      0.0      0.0   100      5.8     0.2      3
    18     8  1997    -9    0      220.9     1.2      0.0    0.0    1.2    0.0      0.0      0.0   -9.90      3.7      1.3    34      0.0      0.0   100      3.7     1.3     34
    19     8  1997    -9    0      224.2     7.2      0.0    0.0    7.2    0.0      0.0      0.0   -9.90      4.0      4.0   100      0.0      0.0   100      4.0     4.0    100
    20     8  1997    -9    0      224.0     2.2      0.0    0.0    2.2    0.0      0.0      0.0   -9.90      4.7      2.3    50      0.0      0.0   100      4.7     2.3     50
    21     8  1997    -9    0      223.8     0.0      0.0    0.0    0.0    0.0      0.0      0.0   -9.90      5.0      0.3     5      0.0      0.0   100      5.0     0.3      5
    22     8  1997    -9    0      223.6     0.4      0.0    0.0    0.4    0.0      0.0      0.0   -9.90      3.9      0.6    15      0.0      0.0   100      3.9     0.6     15
    23     8  1997    -9    0      223.3     0.0      0.0    0.0    0.0    0.0      0.0      0.0   -9.90      5.9      0.3     5      0.0      0.0   100      5.9     0.3      5

Legend

DAP          : Days after planting
Stage        : 0: before/after planting
Stage        : 1: emergence or transplant recovery
Stage        : 2: vegetative stage
Stage        : 3: flowering
Stage        : 4: yield formation and ripening
WCTot        : Water content in total soil profile
Rain         : Rainfall
Irri         : Water applied by irrigation
Surf         : Stored water on soil surface between bunds
Infilt       : Infiltrated water in soil profile
RO           : Surface runoff
Drain        : Water drained out of the soil profile
CR           : Water moved upward by capillary rise
Zgwt         : Depth of the groundwater table (-9.90 if absent)
Ex           : Maximum soil evaporation
E            : Soil evaporation
E/Ex         : Relative soil evaporation (100 E/Ex)
Trx          : Maximum crop transpiration
Tr           : Crop transpiration
Tr/Trx       : Relative crop transpiration (100 Tr/Trx)
ETx          : Maximum evapotranspiration
ET           : Evapotranspiration
ET/ETx       : Relative evapotranspriation (100 ET/ETx)
