AquaCrop 4.0 (June 2012) - Output created on (date) : 01/05/2014   at (time) : 09:47:20
Crop development and production

   Day Month  Year   DAP Stage    GD       Z     StExp  StSto  StSen StSalt   CC    Kc(Tr)     Trx      Tr   Tr/Trx   WP    StBio  Biomass    HI  YieldPart  Brelative   WPet
                                °C-day     m       %      %      %      %      %      -        mm       mm     %     g/m2     %    ton/ha      %    ton/ha        %      kg/m3
    22     9  1996    -9    0    16.0    0.00     -9     -9     -9    100     0.0    0.00      0.0      0.0   100     0.0     0     0.000    -9.9    0.000      -9      0.00
    23     9  1996    -9    0    13.9    0.00     -9     -9     -9      0     0.0    0.00      0.0      0.0   100     0.0     0     0.000    -9.9    0.000      -9      0.00
    24     9  1996    -9    0    13.8    0.00     -9     -9     -9      0     0.0    0.00      0.0      0.0   100     0.0     0     0.000    -9.9    0.000      -9      0.00
    25     9  1996    -9    0    12.2    0.00     -9     -9     -9      0     0.0    0.00      0.0      0.0   100     0.0     0     0.000    -9.9    0.000      -9      0.00
    26     9  1996    -9    0    12.8    0.00     -9     -9     -9      0     0.0    0.00      0.0      0.0   100     0.0     0     0.000    -9.9    0.000      -9      0.00
    27     9  1996    -9    0    12.9    0.00     -9     -9     -9      0     0.0    0.00      0.0      0.0   100     0.0     0     0.000    -9.9    0.000      -9      0.00
    28     9  1996    -9    0    13.6    0.00     -9     -9     -9      0     0.0    0.00      0.0      0.0   100     0.0     0     0.000    -9.9    0.000      -9      0.00
    29     9  1996    -9    0    15.3    0.00     -9     -9     -9      0     0.0    0.00      0.0      0.0   100     0.0     0     0.000    -9.9    0.000      -9      0.00
    30     9  1996    -9    0    14.7    0.00     -9     -9     -9      0     0.0    0.00      0.0      0.0   100     0.0     0     0.000    -9.9    0.000      -9      0.00
     1    10  1996    -9    0    13.7    0.00     -9     -9     -9      0     0.0    0.00      0.0      0.0   100     0.0     0     0.000    -9.9    0.000      -9      0.00
     2    10  1996    -9    0    12.3    0.00     -9     -9     -9      0     0.0    0.00      0.0      0.0   100     0.0     0     0.000    -9.9    0.000      -9      0.00
     3    10  1996    -9    0    12.2    0.00     -9     -9     -9      0     0.0    0.00      0.0      0.0   100     0.0     0     0.000    -9.9    0.000      -9      0.00
     4    10  1996    -9    0    11.3    0.00     -9     -9     -9      0     0.0    0.00      0.0      0.0   100     0.0     0     0.000    -9.9    0.000      -9      0.00
     5    10  1996    -9    0    14.7    0.00     -9     -9     -9      0     0.0    0.00      0.0      0.0   100     0.0     0     0.000    -9.9    0.000      -9      0.00
     6    10  1996    -9    0    14.1    0.00     -9     -9     -9      0     0.0    0.00      0.0      0.0   100     0.0     0     0.000    -9.9    0.000      -9      0.00
     7    10  1996    -9    0    12.0    0.00     -9     -9     -9      0     0.0    0.00      0.0      0.0   100     0.0     0     0.000    -9.9    0.000      -9      0.00
     8    10  1996    -9    0    14.0    0.00     -9     -9     -9      0     0.0    0.00      0.0      0.0   100     0.0     0     0.000    -9.9    0.000      -9      0.00
     9    10  1996    -9    0    14.4    0.00     -9     -9     -9      0     0.0    0.00      0.0      0.0   100     0.0     0     0.000    -9.9    0.000      -9      0.00
    10    10  1996    -9    0    14.2    0.00     -9     -9     -9      0     0.0    0.00      0.0      0.0   100     0.0     0     0.000    -9.9    0.000      -9      0.00
    11    10  1996    -9    0    14.0    0.00     -9     -9     -9      0     0.0    0.00      0.0      0.0   100     0.0     0     0.000    -9.9    0.000      -9      0.00
    12    10  1996    -9    0    12.5    0.00     -9     -9     -9      0     0.0    0.00      0.0      0.0   100     0.0     0     0.000    -9.9    0.000      -9      0.00
    13    10  1996    -9    0    12.1    0.00     -9     -9     -9      0     0.0    0.00      0.0      0.0   100     0.0     0     0.000    -9.9    0.000      -9      0.00
    14    10  1996    -9    0    14.1    0.00     -9     -9     -9      0     0.0    0.00      0.0      0.0   100     0.0     0     0.000    -9.9    0.000      -9      0.00
    15    10  1996    -9    0    15.3    0.00     -9     -9     -9      0     0.0    0.00      0.0      0.0   100     0.0     0     0.000    -9.9    0.000      -9      0.00
    16    10  1996    -9    0    12.3    0.00     -9     -9     -9      0     0.0    0.00      0.0      0.0   100     0.0     0     0.000    -9.9    0.000      -9      0.00
    17    10  1996    -9    0    10.4    0.00     -9     -9     -9      0     0.0    0.00      0.0      0.0   100     0.0     0     0.000    -9.9    0.000      -9      0.00
    18    10  1996    -9    0     8.8    0.00     -9     -9     -9      0     0.0    0.00      0.0      0.0   100     0.0     0     0.000    -9.9    0.000      -9      0.00
    19    10  1996    -9    0     7.7    0.00     -9     -9     -9      0     0.0    0.00      0.0      0.0   100     0.0     0     0.000    -9.9    0.000      -9      0.00
    20    10  1996    -9    0    10.9    0.00     -9     -9     -9      0     0.0    0.00      0.0      0.0   100     0.0     0     0.000    -9.9    0.000      -9      0.00
    21    10  1996    -9    0     9.8    0.00     -9     -9     -9      0     0.0    0.00      0.0      0.0   100     0.0     0     0.000    -9.9    0.000      -9      0.00
    22    10  1996    -9    0    12.3    0.00     -9     -9     -9      0     0.0    0.00      0.0      0.0   100     0.0     0     0.000    -9.9    0.000      -9      0.00
    23    10  1996    -9    0    11.9    0.00     -9     -9     -9      0     0.0    0.00      0.0      0.0   100     0.0     0     0.000    -9.9    0.000      -9      0.00
    24    10  1996    -9    0    10.2    0.00     -9     -9     -9      0     0.0    0.00      0.0      0.0   100     0.0     0     0.000    -9.9    0.000      -9      0.00
    25    10  1996    -9    0     9.1    0.00     -9     -9     -9      0     0.0    0.00      0.0      0.0   100     0.0     0     0.000    -9.9    0.000      -9      0.00
    26    10  1996    -9    0     8.6    0.00     -9     -9     -9      0     0.0    0.00      0.0      0.0   100     0.0     0     0.000    -9.9    0.000      -9      0.00
    27    10  1996    -9    0     9.0    0.00     -9     -9     -9      0     0.0    0.00      0.0      0.0   100     0.0     0     0.000    -9.9    0.000      -9      0.00
    28    10  1996    -9    0     8.5    0.00     -9     -9     -9      0     0.0    0.00      0.0      0.0   100     0.0     0     0.000    -9.9    0.000      -9      0.00
    29    10  1996    -9    0    10.4    0.00     -9     -9     -9      0     0.0    0.00      0.0      0.0   100     0.0     0     0.000    -9.9    0.000      -9      0.00
    30    10  1996    -9    0    12.1    0.00     -9     -9     -9      0     0.0    0.00      0.0      0.0   100     0.0     0     0.000    -9.9    0.000      -9      0.00
    31    10  1996    -9    0    10.3    0.00     -9     -9     -9      0     0.0    0.00      0.0      0.0   100     0.0     0     0.000    -9.9    0.000      -9      0.00
     1    11  1996    -9    0     8.6    0.00     -9     -9     -9      0     0.0    0.00      0.0      0.0   100     0.0     0     0.000    -9.9    0.000      -9      0.00
     2    11  1996    -9    0    11.4    0.00     -9     -9     -9      0     0.0    0.00      0.0      0.0   100     0.0     0     0.000    -9.9    0.000      -9      0.00
     3    11  1996    -9    0    10.8    0.00     -9     -9     -9      0     0.0    0.00      0.0      0.0   100     0.0     0     0.000    -9.9    0.000      -9      0.00
     4    11  1996    -9    0     9.0    0.00     -9     -9     -9      0     0.0    0.00      0.0      0.0   100     0.0     0     0.000    -9.9    0.000      -9      0.00
     5    11  1996    -9    0    11.3    0.00     -9     -9     -9      0     0.0    0.00      0.0      0.0   100     0.0     0     0.000    -9.9    0.000      -9      0.00
     6    11  1996    -9    0    11.4    0.00     -9     -9     -9      0     0.0    0.00      0.0      0.0   100     0.0     0     0.000    -9.9    0.000      -9      0.00
     7    11  1996    -9    0    10.5    0.00     -9     -9     -9      0     0.0    0.00      0.0      0.0   100     0.0     0     0.000    -9.9    0.000      -9      0.00
     8    11  1996    -9    0    10.4    0.00     -9     -9     -9      0     0.0    0.00      0.0      0.0   100     0.0     0     0.000    -9.9    0.000      -9      0.00
     9    11  1996    -9    0     9.9    0.00     -9     -9     -9      0     0.0    0.00      0.0      0.0   100     0.0     0     0.000    -9.9    0.000      -9      0.00
    10    11  1996    -9    0     9.8    0.00     -9     -9     -9      0     0.0    0.00      0.0      0.0   100     0.0     0     0.000    -9.9    0.000      -9      0.00
    11    11  1996    -9    0    13.6    0.00     -9     -9     -9      0     0.0    0.00      0.0      0.0   100     0.0     0     0.000    -9.9    0.000      -9      0.00
    12    11  1996    -9    0    15.3    0.00     -9     -9     -9      0     0.0    0.00      0.0      0.0   100     0.0     0     0.000    -9.9    0.000      -9      0.00
    13    11  1996    -9    0    15.1    0.00     -9     -9     -9      0     0.0    0.00      0.0      0.0   100     0.0     0     0.000    -9.9    0.000      -9      0.00
    14    11  1996    -9    0    15.4    0.00     -9     -9     -9      0     0.0    0.00      0.0      0.0   100     0.0     0     0.000    -9.9    0.000      -9      0.00
    15    11  1996    -9    0    15.2    0.00     -9     -9     -9      0     0.0    0.00      0.0      0.0   100     0.0     0     0.000    -9.9    0.000      -9      0.00
    16    11  1996    -9    0    13.1    0.00     -9     -9     -9      0     0.0    0.00      0.0      0.0   100     0.0     0     0.000    -9.9    0.000      -9      0.00
    17    11  1996    -9    0    12.4    0.00     -9     -9     -9      0     0.0    0.00      0.0      0.0   100     0.0     0     0.000    -9.9    0.000      -9      0.00
    18    11  1996    -9    0    10.0    0.00     -9     -9     -9      0     0.0    0.00      0.0      0.0   100     0.0     0     0.000    -9.9    0.000      -9      0.00
    19    11  1996    -9    0     7.3    0.00     -9     -9     -9      0     0.0    0.00      0.0      0.0   100     0.0     0     0.000    -9.9    0.000      -9      0.00
    20    11  1996    -9    0     8.1    0.00     -9     -9     -9      0     0.0    0.00      0.0      0.0   100     0.0     0     0.000    -9.9    0.000      -9      0.00
    21    11  1996    -9    0     5.4    0.00     -9     -9     -9      0     0.0    0.00      0.0      0.0   100     0.0     0     0.000    -9.9    0.000      -9      0.00
    22    11  1996    -9    0     6.9    0.00     -9     -9     -9      0     0.0    0.00      0.0      0.0   100     0.0     0     0.000    -9.9    0.000      -9      0.00
    23    11  1996    -9    0     3.5    0.00     -9     -9     -9      0     0.0    0.00      0.0      0.0   100     0.0     0     0.000    -9.9    0.000      -9      0.00
    24    11  1996    -9    0     3.5    0.00     -9     -9     -9      0     0.0    0.00      0.0      0.0   100     0.0     0     0.000    -9.9    0.000      -9      0.00
    25    11  1996    -9    0     2.8    0.00     -9     -9     -9      0     0.0    0.00      0.0      0.0   100     0.0     0     0.000    -9.9    0.000      -9      0.00
    26    11  1996    -9    0     5.2    0.00     -9     -9     -9      0     0.0    0.00      0.0      0.0   100     0.0     0     0.000    -9.9    0.000      -9      0.00
    27    11  1996    -9    0     5.0    0.00     -9     -9     -9      0     0.0    0.00      0.0      0.0   100     0.0     0     0.000    -9.9    0.000      -9      0.00
    28    11  1996    -9    0     7.1    0.00     -9     -9     -9      0     0.0    0.00      0.0      0.0   100     0.0     0     0.000    -9.9    0.000      -9      0.00
    29    11  1996    -9    0     2.9    0.00     -9     -9     -9      0     0.0    0.00      0.0      0.0   100     0.0     0     0.000    -9.9    0.000      -9      0.00
    30    11  1996    -9    0     3.0    0.00     -9     -9     -9      0     0.0    0.00      0.0      0.0   100     0.0     0     0.000    -9.9    0.000      -9      0.00
     1    12  1996    -9    0     3.7    0.00     -9     -9     -9      0     0.0    0.00      0.0      0.0   100     0.0     0     0.000    -9.9    0.000      -9      0.00
     2    12  1996    -9    0     4.1    0.00     -9     -9     -9      0     0.0    0.00      0.0      0.0   100     0.0     0     0.000    -9.9    0.000      -9      0.00
     3    12  1996    -9    0     3.5    0.00     -9     -9     -9      0     0.0    0.00      0.0      0.0   100     0.0     0     0.000    -9.9    0.000      -9      0.00
     4    12  1996     1    1     3.8    0.30     -9     -9     -9      0     0.0    0.00      0.0      0.0   100    14.7     0     0.000    -9.9    0.000      -9      0.00
     5    12  1996     2    1     4.0    0.30     -9     -9     -9      0     0.0    0.00      0.0      0.0   100    14.7     0     0.000    -9.9    0.000      -9      0.00
     6    12  1996     3    1     3.1    0.30     -9     -9     -9      0     0.0    0.00      0.0      0.0   100    14.7     0     0.000    -9.9    0.000      -9      0.00
     7    12  1996     4    1     7.1    0.30     -9     -9     -9      0     0.0    0.00      0.0      0.0   100    14.7     0     0.000    -9.9    0.000      -9      0.00
     8    12  1996     5    1     5.9    0.30     -9     -9     -9      0     0.0    0.00      0.0      0.0   100    14.7     0     0.000    -9.9    0.000      -9      0.00
     9    12  1996     6    1     6.2    0.30     -9     -9     -9      0     0.0    0.00      0.0      0.0   100    14.7     0     0.000    -9.9    0.000      -9      0.00
    10    12  1996     7    1     8.1    0.30     -9     -9     -9      0     0.0    0.00      0.0      0.0   100    14.7     0     0.000    -9.9    0.000      -9      0.00
    11    12  1996     8    1     6.3    0.30     -9     -9     -9      0     0.0    0.00      0.0      0.0   100    14.7     0     0.000    -9.9    0.000      -9      0.00
    12    12  1996     9    1     5.5    0.30     -9     -9     -9      0     0.0    0.00      0.0      0.0   100    14.7     0     0.000    -9.9    0.000      -9      0.00
    13    12  1996    10    1     7.8    0.30     -9     -9     -9      0     0.0    0.00      0.0      0.0   100    14.7     0     0.000    -9.9    0.000      -9      0.00
    14    12  1996    11    1    11.6    0.30     -9     -9     -9      0     0.0    0.00      0.0      0.0   100    14.7     0     0.000    -9.9    0.000      -9      0.00
    15    12  1996    12    1     7.8    0.30     -9     -9     -9      0     0.0    0.00      0.0      0.0   100    14.7     0     0.000    -9.9    0.000      -9      0.00
    16    12  1996    13    1     6.3    0.30     -9     -9     -9      0     0.0    0.00      0.0      0.0   100    14.7     0     0.000    -9.9    0.000      -9      0.00
    17    12  1996    14    1     4.3    0.30     -9     -9     -9      0     0.0    0.00      0.0      0.0   100    14.7     0     0.000    -9.9    0.000      -9      0.00
    18    12  1996    15    1     6.3    0.32     -9     -9     -9      0     0.0    0.00      0.0      0.0   100    14.7     0     0.000    -9.9    0.000      -9      0.00
    19    12  1996    16    1     4.6    0.33     -9     -9     -9      0     0.0    0.00      0.0      0.0   100    14.7     0     0.000    -9.9    0.000      -9      0.00
    20    12  1996    17    1     9.3    0.37     -9     -9     -9      0     0.0    0.00      0.0      0.0   100    14.7     0     0.000    -9.9    0.000      -9      0.00
    21    12  1996    18    1    10.7    0.40     -9     -9     -9      0     0.0    0.00      0.0      0.0   100    14.7     0     0.000    -9.9    0.000      -9      0.00
    22    12  1996    19    1    10.2    0.43     -9     -9     -9      0     0.0    0.00      0.0      0.0   100    14.7     0     0.000    -9.9    0.000      -9      0.00
    23    12  1996    20    1    10.7    0.45     -9     -9     -9      0     0.0    0.00      0.0      0.0   100    14.7     0     0.000    -9.9    0.000      -9      0.00
    24    12  1996    21    1     9.8    0.48     -9     -9     -9      0     0.0    0.00      0.0      0.0   100    14.7     0     0.000    -9.9    0.000      -9      0.00
    25    12  1996    22    1     6.7    0.49     -9      0      0      0     7.0    0.13      0.1      0.1   100    14.7    56     0.008    -9.9    0.000     100      0.00
    26    12  1996    23    2     0.0    0.49      0      0      0      0     7.0    0.13      0.2      0.2   100    14.7   100     0.008    -9.9    0.000     100      0.00
    27    12  1996    24    2     0.0    0.49      0      0      0      0     7.0    0.13      0.1      0.1   100    14.7   100     0.008    -9.9    0.000     100      0.00
    28    12  1996    25    2     0.0    0.49      0      0      0      0     7.0    0.13      0.1      0.1   100    14.7   100     0.008    -9.9    0.000     100      0.00
    29    12  1996    26    2     0.0    0.49      0      0      0      0     7.0    0.13      0.1      0.1   100    14.7   100     0.008    -9.9    0.000     100      0.00
    30    12  1996    27    2     0.0    0.49      0      0      0      0     7.0    0.13      0.1      0.1   100    14.7   100     0.008    -9.9    0.000     100      0.00
    31    12  1996    28    2     0.0    0.49      0      0      0      0     7.0    0.13      0.1      0.1   100    14.7   100     0.008    -9.9    0.000     100      0.00
     1     1  1997    29    2     8.1    0.51      0      0      0      0     7.3    0.13      0.1      0.1   100    14.7    36     0.021    -9.9    0.000     100      0.00
     2     1  1997    30    2     9.6    0.53      0      0      0      0     7.6    0.14      0.1      0.1   100    14.7    20     0.037    -9.9    0.000     100      0.00
     3     1  1997    31    2    10.8    0.56      0      0      0      0     8.0    0.15      0.1      0.1   100    14.7    12     0.056    -9.9    0.000     100      0.00
     4     1  1997    32    2     6.7    0.57      0      0      0      0     8.3    0.15      0.1      0.1   100    14.7    55     0.066    -9.9    0.000     100      0.00
     5     1  1997    33    2     5.0    0.58      0      0      0      0     8.5    0.15      0.1      0.1   100    14.7    77     0.071    -9.9    0.000     100      0.00
     6     1  1997    34    2     5.0    0.59      0      0      0      0     8.7    0.16      0.1      0.1   100    14.7    77     0.077    -9.9    0.000     100      0.00
     7     1  1997    35    2     6.0    0.60      0      0      0      0     9.0    0.16      0.1      0.1   100    14.7    65     0.085    -9.9    0.000     100      0.00
     8     1  1997    36    2     6.5    0.61      0      0      0      0     9.3    0.17      0.1      0.1   100    14.7    59     0.095    -9.9    0.000     100      0.00
     9     1  1997    37    2     7.5    0.63      0      0      0      0     9.7    0.17      0.1      0.1   100    14.7    44     0.109    -9.9    0.000     100      0.00
    10     1  1997    38    2     3.9    0.64      0      0      0      0     9.8    0.18      0.1      0.1   100    14.7    87     0.113    -9.9    0.000     100      0.00
    11     1  1997    39    2     6.1    0.65      0      0      0      0    10.2    0.18      0.2      0.2   100    14.7    63     0.122    -9.9    0.000     100      0.00
    12     1  1997    40    2     6.3    0.66      0      0      0      0    10.5    0.19      0.3      0.3   100    14.7    61     0.133    -9.9    0.000     100      0.00
    13     1  1997    41    2     6.2    0.67      0      0      0      0    10.8    0.19      0.3      0.3   100    14.7    62     0.144    -9.9    0.000     100      0.00
    14     1  1997    42    2     6.5    0.68      0      0      0      0    11.2    0.20      0.3      0.3   100    14.7    57     0.156    -9.9    0.000     100      0.00
    15     1  1997    43    2     6.7    0.69      0      0      0      0    11.5    0.20      0.2      0.2   100    14.7    55     0.170    -9.9    0.000     100      0.00
    16     1  1997    44    2     4.2    0.70      0      0      0      0    11.8    0.21      0.1      0.1   100    14.7    84     0.175    -9.9    0.000     100      0.00
    17     1  1997    45    2     2.8    0.71      0      0      0      0    12.0    0.21      0.1      0.1   100    14.7    93     0.177    -9.9    0.000     100      0.00
    18     1  1997    46    2     0.3    0.71      0      0      0      0    12.0    0.21      0.1      0.1   100    14.7   100     0.177    -9.9    0.000     100      0.00
    19     1  1997    47    2     3.1    0.71      0      0      0      0    12.2    0.21      0.1      0.1   100    14.7    91     0.180    -9.9    0.000     100      0.00
    20     1  1997    48    2     9.4    0.73      0      0      0      0    12.7    0.22      0.2      0.2   100    14.7    22     0.206    -9.9    0.000     100      0.00
    21     1  1997    49    2    10.1    0.75      0      0      0      0    13.4    0.23      0.3      0.3   100    14.7    16     0.235    -9.9    0.000     100      0.00
    22     1  1997    50    2     9.3    0.76      0      0      0      0    14.0    0.24      0.3      0.3   100    14.7    22     0.263    -9.9    0.000     100      0.00
    23     1  1997    51    2     9.2    0.78      0      0      0      0    14.7    0.26      0.3      0.3   100    14.7    24     0.292    -9.9    0.000     100      0.00
    24     1  1997    52    2     7.7    0.79      0      0      0      0    15.3    0.26      0.2      0.2   100    14.7    42     0.314    -9.9    0.000     100      0.00
    25     1  1997    53    2     6.8    0.80      0      0      0      0    15.8    0.27      0.2      0.2   100    14.7    54     0.333    -9.9    0.000     100      0.00
    26     1  1997    54    2     6.7    0.81      0      0      0      0    16.3    0.28      0.3      0.3   100    14.7    56     0.351    -9.9    0.000     100      0.00
    27     1  1997    55    2     7.5    0.82      0      0      0      0    17.0    0.29      0.3      0.3   100    14.7    45     0.375    -9.9    0.000     100      0.00
    28     1  1997    56    2     8.0    0.84      0      0      0      0    17.6    0.30      0.3      0.3   100    14.7    38     0.402    -9.9    0.000     100      0.00
    29     1  1997    57    2     8.0    0.85      0      0      0      0    18.4    0.31      0.5      0.5   100    14.7    38     0.431    -9.9    0.000     100      0.00
    30     1  1997    58    2     5.2    0.86      0      0      0      0    18.8    0.32      0.4      0.4   100    14.7    75     0.443    -9.9    0.000     100      0.00
    31     1  1997    59    2     3.9    0.86      0      0      0      0    19.2    0.33      0.5      0.5   100    14.7    86     0.449    -9.9    0.000     100      0.00
     1     2  1997    60    2     5.5    0.87      0      0      0      0    19.7    0.33      0.4      0.4   100    14.7    71     0.464    -9.9    0.000     100      0.00
     2     2  1997    61    2     4.1    0.88      0      0      0      0    20.2    0.34      0.4      0.4   100    14.7    84     0.471    -9.9    0.000     100      0.00
     3     2  1997    62    2     4.2    0.88      0      0      0      0    20.6    0.35      0.4      0.4   100    14.7    84     0.479    -9.9    0.000     100      0.00
     4     2  1997    63    2     3.4    0.89      0      0      0      0    20.9    0.35      0.2      0.2   100    14.7    89     0.485    -9.9    0.000     100      0.00
     5     2  1997    64    2     4.7    0.90      0      0      0      0    21.4    0.36      0.1      0.1   100    14.7    80     0.496    -9.9    0.000     100      0.00
     6     2  1997    65    2     6.7    0.91      0      0      0      0    22.2    0.37      0.4      0.4   100    14.7    55     0.520    -9.9    0.000     100      0.00
     7     2  1997    66    2     6.5    0.91      0      0      0      0    22.9    0.38      0.8      0.8   100    14.7    59     0.543    -9.9    0.000     100      0.00
     8     2  1997    67    2     5.6    0.92      0      0      0      0    23.5    0.39      0.7      0.7   100    14.7    70     0.561    -9.9    0.000     100      0.00
     9     2  1997    68    2     5.5    0.93      0      0      0      0    24.2    0.40      0.6      0.6   100    14.7    71     0.578    -9.9    0.000     100      0.00
    10     2  1997    69    2     6.5    0.94      0      0      0      0    25.0    0.41      0.5      0.5   100    14.7    57     0.603    -9.9    0.000     100      0.00
    11     2  1997    70    2     6.7    0.95      0      0      0      0    25.9    0.42      0.5      0.5   100    14.7    55     0.631    -9.9    0.000     100      0.00
    12     2  1997    71    2     8.2    0.96      0      0      0      0    26.9    0.44      0.4      0.4   100    14.7    35     0.673    -9.9    0.000     100      0.00
    13     2  1997    72    2     8.1    0.97      0      0      0      0    28.1    0.45      0.5      0.5   100    14.7    36     0.716    -9.9    0.000     100      0.00
    14     2  1997    73    2     6.4    0.98      0      0      0      0    29.0    0.46      0.6      0.6   100    14.7    60     0.743    -9.9    0.000     100      0.00
    15     2  1997    74    2     8.0    0.99      0      0      0      0    30.1    0.48      0.2      0.2   100    14.7    38     0.787    -9.9    0.000     100      0.00
    16     2  1997    75    2     3.8    1.00      0      0      0      0    30.7    0.49      1.0      1.0   100    14.7    87     0.796    -9.9    0.000     100      0.00
    17     2  1997    76    2     3.6    1.00      0      0      0      0    31.3    0.49      0.9      0.9   100    14.7    88     0.805    -9.9    0.000     100      0.00
    18     2  1997    77    2     4.2    1.00      0      0      0      0    31.9    0.50      1.0      1.0   100    14.7    84     0.817    -9.9    0.000     100      0.00
    19     2  1997    78    2     6.0    1.00      0      0      0      0    32.9    0.52      1.0      1.0   100    14.7    65     0.843    -9.9    0.000     100      0.00
    20     2  1997    79    2     5.4    1.00      0      0      0      0    33.8    0.53      1.1      1.1   100    14.7    72     0.865    -9.9    0.000     100      0.00
    21     2  1997    80    2     6.2    1.00      0      0      0      0    34.9    0.54      0.8      0.8   100    14.7    63     0.894    -9.9    0.000     100      0.00
    22     2  1997    81    2     8.0    1.00      0      0      0      0    36.3    0.56      0.8      0.8   100    14.7    38     0.945    -9.9    0.000     100      0.00
    23     2  1997    82    2     6.5    1.00      0      0      0      0    37.5    0.57      0.9      0.9   100    14.7    59     0.980    -9.9    0.000     100      0.00
    24     2  1997    83    2     6.2    1.00      0      0      0      0    38.6    0.59      0.5      0.5   100    14.7    62     1.013    -9.9    0.000     100      0.00
    25     2  1997    84    2     9.8    1.00      0      0      0      0    40.6    0.61      0.5      0.5   100    14.7    18     1.086    -9.9    0.000     100      0.00
    26     2  1997    85    2     6.7    1.00      0      0      0      0    41.9    0.62      0.4      0.4   100    14.7    55     1.127    -9.9    0.000     100      0.00
    27     2  1997    86    2     6.7    1.00      0      0      0      0    43.4    0.64      1.2      1.2   100    14.7    55     1.170    -9.9    0.000     100      0.00
    28     2  1997    87    2     5.2    1.00      0      0      0      0    44.5    0.65      1.4      1.4   100    14.7    74     1.194    -9.9    0.000     100      0.00
     1     3  1997    88    2     0.0    1.00      1      0      0      0    44.5    0.65      1.6      1.6   100    14.7   100     1.194    -9.9    0.000     100      0.00
     2     3  1997    89    2     0.0    1.00      1      0      0      0    44.5    0.65      1.8      1.8   100    14.7   100     1.194    -9.9    0.000     100      0.00
     3     3  1997    90    2     8.7    1.00      3      0      0      0    46.4    0.67      2.0      2.0   100    14.7    29     1.265    -9.9    0.000     100      0.00
     4     3  1997    91    2    10.7    1.00      4      0      0      0    48.9    0.70      1.8      1.8   100    14.7    12     1.356    -9.9    0.000     100      0.00
     5     3  1997    92    2     9.4    1.00      3      0      0      0    50.9    0.72      1.2      1.2   100    14.7    21     1.440    -9.9    0.000     100      0.00
     6     3  1997    93    2     9.5    1.00      4      0      0      0    52.9    0.74      1.0      1.0   100    14.7    21     1.527    -9.9    0.000     100      0.00
     7     3  1997    94    2    12.5    1.00     10      0      0      0    55.2    0.76      2.4      2.4   100    14.7     5     1.634    -9.9    0.000     100      0.00
     8     3  1997    95    2    10.0    1.00     13      0      0      0    56.9    0.78      2.2      2.2   100    14.7    16     1.730    -9.9    0.000     100      0.00
     9     3  1997    96    2     8.5    1.00     19      0      0      0    58.1    0.79      2.1      2.1   100    14.7    32     1.810    -9.9    0.000     100      0.00
    10     3  1997    97    2     9.2    1.00     33      0      0      0    59.2    0.80      2.6      2.6   100    14.7    23     1.901    -9.9    0.000     100      0.00
    11     3  1997    98    2     8.0    1.00     39      0      0      0    60.0    0.81      2.0      2.0   100    14.7    38     1.975    -9.9    0.000     100      0.00
    12     3  1997    99    2     9.5    1.00     68      0      0      0    60.4    0.81      2.6      2.6   100    14.7    21     2.070    -9.9    0.000     100      0.00
    13     3  1997   100    2     7.8    1.00     94      0      0      0    60.4    0.81      2.4      2.4   100    14.7    39     2.143    -9.9    0.000      99      0.00
    14     3  1997   101    2     9.3    1.00    100      6      0      0    60.4    0.81      2.0      1.8    94    14.7    23     2.230    -9.9    0.000      99      0.00
    15     3  1997   102    2     9.5    1.00    100     15      0      0    60.4    0.81      2.0      1.7    85    14.7    21     2.311    -9.9    0.000      98      0.00
    16     3  1997   103    2    10.7    1.00    100     26      3      0    60.3    0.81      2.4      1.8    74    14.7    12     2.389    -9.9    0.000      97      0.00
    17     3  1997   104    2     9.5    1.00    100     32      6      0    60.3    0.81      2.1      1.4    68    14.7    20     2.453    -9.9    0.000      95      0.00
    18     3  1997   105    2    11.3    1.00    100     39      9      0    60.1    0.81      2.0      1.2    61    14.7     9     2.520    -9.9    0.000      93      0.00
    19     3  1997   106    2     9.2    1.00    100     44     12      0    60.0    0.81      1.9      1.1    56    14.7    23     2.571    -9.9    0.000      92      0.00
    20     3  1997   107    2     9.2    1.00    100     51     16      0    59.8    0.80      2.2      1.1    49    14.7    23     2.615    -9.9    0.000      90      0.00
    21     3  1997   108    2     5.9    1.00    100     56     20      0    59.7    0.80      2.2      1.0    44    14.7    66     2.633    -9.9    0.000      89      0.00
    22     3  1997   109    2     7.5    1.00    100     59     24      0    59.6    0.80      1.9      0.8    41    14.7    45     2.659    -9.9    0.000      88      0.00
    23     3  1997   110    2     7.5    1.00    100     61     25      0    59.4    0.79      1.4      0.6    39    14.7    45     2.684    -9.9    0.000      86      0.00
    24     3  1997   111    2     7.0    1.00     43      0      0      0    60.0    0.80      0.7      0.7   100    14.7    52     2.742    -9.9    0.000      86      0.00
    25     3  1997   112    2     8.3    1.00     16      0      0      0    61.1    0.82      1.9      1.9   100    14.7    34     2.821    -9.9    0.000      86      0.00
    26     3  1997   113    2     9.5    1.00     34      0      0      0    62.0    0.83      2.7      2.7   100    14.7    21     2.918    -9.9    0.000      86      0.00
    27     3  1997   114    2     9.3    1.00     54      0      0      0    62.6    0.83      2.5      2.5   100    14.7    22     3.014    -9.9    0.000      86      0.00
    28     3  1997   115    2     7.0    1.00     67      0      0      0    62.8    0.84      1.8      1.8   100    14.7    51     3.074    -9.9    0.000      86      0.00
    29     3  1997   116    2     5.5    1.00     59      0      0      0    63.1    0.84      2.8      2.8   100    14.7    71     3.110    -9.9    0.000      86      0.00
    30     3  1997   117    2     4.1    1.00     95      2      0      0    63.1    0.84      2.6      2.5    98    14.7    85     3.129    -9.9    0.000      86      0.00
    31     3  1997   118    2     4.5    1.00    100     20      0      0    63.1    0.84      3.1      2.5    80    14.7    81     3.147    -9.9    0.000      86      0.00
     1     4  1997   119    2     7.1    1.00    100     30      3      0    63.1    0.84      2.5      1.8    70    14.7    50     3.191    -9.9    0.000      85      0.00
     2     4  1997   120    2     6.6    1.00    100     36      6      0    63.0    0.84      1.9      1.2    64    14.7    57     3.226    -9.9    0.000      85      0.00
     3     4  1997   121    2    10.3    1.00    100     51     14      0    62.9    0.83      2.9      1.4    49    14.7    14     3.278    -9.9    0.000      84      0.00
     4     4  1997   122    2     9.7    1.00    100     57     19      0    62.7    0.83      2.3      1.0    43    14.7    19     3.320    -9.9    0.000      82      0.00
     5     4  1997   123    2     8.5    1.00    100     64     28      0    62.5    0.83      2.8      1.0    36    14.7    30     3.351    -9.9    0.000      81      0.00
     6     4  1997   124    2     8.9    1.00    100     65     29      0    62.3    0.82      1.5      0.5    35    14.7    27     3.382    -9.9    0.000      79      0.00
     7     4  1997   125    2     7.8    1.00    100     74     40      0    62.1    0.82      3.1      0.8    26    14.7    41     3.401    -9.9    0.000      78      0.00
     8     4  1997   126    2     4.7    1.00    100     78     46      0    62.0    0.81      2.9      0.7    22    14.7    80     3.407    -9.9    0.000      78      0.00
     9     4  1997   127    2     6.2    1.00    100     80     51      0    61.8    0.81      2.4      0.5    20    14.7    63     3.415    -9.9    0.000      77      0.00
    10     4  1997   128    2     7.5    1.00    100     84     57      0    61.6    0.81      2.6      0.4    16    14.7    44     3.426    -9.9    0.000      76      0.00
    11     4  1997   129    2     6.9    1.00    100     86     62      0    61.4    0.80      2.4      0.3    14    14.7    53     3.434    -9.9    0.000      75      0.00
    12     4  1997   130    2     8.0    1.00    100     88     64      0    61.1    0.80      2.2      0.3    12    14.7    37     3.443    -9.9    0.000      74      0.00
    13     4  1997   131    2     6.4    1.00    100     91     72      0    60.9    0.79      2.9      0.3     9    14.7    60     3.447    -9.9    0.000      73      0.00
    14     4  1997   132    2     6.7    1.00    100     92     75      0    60.7    0.79      2.0      0.2     8    14.7    55     3.452    -9.9    0.000      72      0.00
    15     4  1997   133    2     8.1    1.00    100     92     78      0    60.4    0.78      1.5      0.1     8    14.7    36     3.457    -9.9    0.000      70      0.00
    16     4  1997   134    2     8.1    1.00    100     95     83      0    60.1    0.77      2.9      0.1     5    14.7    36     3.461    -9.9    0.000      69      0.00
    17     4  1997   135    2     6.1    1.00    100     96     87      0    59.8    0.77      2.8      0.1     4    14.7    63     3.463    -9.9    0.000      68      0.00
    18     4  1997   136    2     6.5    1.00    100     97     91      0    59.6    0.76      2.9      0.1     3    14.7    58     3.464    -9.9    0.000      68      0.00
    19     4  1997   137    2     6.6    1.00    100     98     94      0    59.3    0.76      2.4      0.0     2    14.7    57     3.465    -9.9    0.000      67      0.00
    20     4  1997   138    2     7.6    1.00    100     94     82      0    58.9    0.75      0.3      0.0     6    14.7    43     3.468    -9.9    0.000      66      0.00
    21     4  1997   139    2     5.8    1.00      0      0      0      0    59.9    0.77      0.2      0.2   100    14.7    67     3.506    -9.9    0.000      66      0.00
    22     4  1997   140    2     2.8    1.00      0      0      0      0    60.3    0.78      0.5      0.5   100    14.7    93     3.514    -9.9    0.000      66      0.00
    23     4  1997   141    2     4.8    1.00      0      0      0      0    61.1    0.79      2.1      2.1   100    14.7    79     3.539    -9.9    0.000      66      0.00
    24     4  1997   142    2     7.4    1.00      0      0      0      0    62.2    0.82      3.0      3.0   100    14.7    46     3.604    -9.9    0.000      66      0.00
    25     4  1997   143    2     9.3    1.00      0      0      0      0    63.5    0.84      3.3      3.3   100    14.7    22     3.700    -9.9    0.000      66      0.00
    26     4  1997   144    2     7.5    1.00      0      0      0      0    64.5    0.85      2.3      2.3   100    14.7    44     3.771    -9.9    0.000      67      0.00
    27     4  1997   145    2    10.9    1.00      0      0      0      0    66.0    0.86      1.6      1.6   100    14.7    11     3.885    -9.9    0.000      67      0.00
    28     4  1997   146    2    11.3    1.00      0      0      0      0    67.4    0.88      2.5      2.5   100    14.7     9     4.002    -9.9    0.000      67      0.00
    29     4  1997   147    2     9.3    1.00      0      0      0      0    68.4    0.89      1.3      1.3   100    14.7    22     4.103    -9.9    0.000      68      0.00
    30     4  1997   148    2     8.6    1.00      0      0      0      0    69.4    0.89      2.0      2.0   100    14.7    30     4.196    -9.9    0.000      68      0.00
     1     5  1997   149    2    11.5    1.00      0      0      0      0    70.6    0.90      3.8      3.8   100    14.7     8     4.319    -9.9    0.000      68      0.00
     2     5  1997   150    2    13.0    1.00      0      0      0      0    71.9    0.91      4.2      4.2   100    14.7     4     4.449    -9.9    0.000      69      0.00
     3     5  1997   151    2    12.3    1.00      0      0      0      0    73.1    0.92      4.0      4.0   100    14.7     5     4.578    -9.9    0.000      69      0.00
     4     5  1997   152    2    12.4    1.00      0      0      0      0    74.2    0.93      4.0      4.0   100    14.7     5     4.709    -9.9    0.000      69      0.00
     5     5  1997   153    2    12.9    1.00      0      0      0      0    75.2    0.94      3.4      3.4   100    14.7     4     4.842    -9.9    0.000      70      0.00
     6     5  1997   154    2    14.3    1.00      2      0      0      0    76.3    0.95      4.5      4.5   100    14.7     0     4.982    -9.9    0.000      70      0.00
     7     5  1997   155    2    11.8    1.00      1      0      0      0    77.1    0.96      3.2      3.2   100    14.7     7     5.113    -9.9    0.000      71      0.00
     8     5  1997   156    2     7.0    1.00      0      0      0      0    77.6    0.96      1.0      1.0   100    14.7    52     5.182    -9.9    0.000      71      0.00
     9     5  1997   157    2     8.3    1.00      0      0      0      0    78.1    0.96      3.1      3.1   100    14.7    33     5.277    -9.9    0.000      71      0.00
    10     5  1997   158    2    10.3    1.00      0      0      0      0    78.8    0.97      3.8      3.8   100    14.7    15     5.399    -9.9    0.000      72      0.00
    11     5  1997   159    2    11.3    1.00      0      0      0      0    79.4    0.97      4.1      4.1   100    14.7     9     5.530    -9.9    0.000      72      0.00
    12     5  1997   160    2    15.3    1.00      0      0      0      0    80.2    0.98      4.3      4.3   100    14.7     0     5.675    -9.9    0.000      72      0.00
    13     5  1997   161    2    17.9    1.00      2      0      0      0    81.1    0.99      4.7      4.7   100    14.7     0     5.820    -9.9    0.000      73      0.00
    14     5  1997   162    2    18.8    1.00      4      0      0      0    81.9    0.99      4.8      4.8   100    14.7     0     5.967    -9.9    0.000      73      0.00
    15     5  1997   163    2    17.9    1.00     10      0      0      0    82.4    1.00      5.1      5.1   100    14.7     0     6.114    -9.9    0.000      73      0.00
    16     5  1997   164    2    18.4    1.00     12      0      0      0    83.0    1.00      3.7      3.7   100    14.7     0     6.261    -9.9    0.000      74      0.00
    17     5  1997   165    2    16.8    1.00     29      0      0      0    83.3    1.00      4.6      4.6   100    14.7     0     6.409    -9.9    0.000      74      0.00
    18     5  1997   166    2    15.3    1.00     52      0      0      0    83.4    1.00      4.1      4.1   100    14.7     0     6.557    -9.9    0.000      74      0.00
    19     5  1997   167    2    14.8    1.00     96      0      0      0    83.4    1.00      4.1      4.1   100    14.7     0     6.706    -9.9    0.000      75      0.00
    20     5  1997   168    3    16.4    1.00    100     16      0      0    83.4    1.00      3.9      3.3    84    14.7     0     6.831    -9.9    0.000      75      0.00
    21     5  1997   169    3    14.6    1.00     16      0      0      0    83.6    1.01      2.0      2.0   100    14.7     0     6.979    -9.9    0.000      75      0.00
    22     5  1997   170    3    13.8    1.00     19      0      0      0    83.7    1.00      3.6      3.6   100    14.7     2     7.124    -9.9    0.000      75      0.00
    23     5  1997   171    3    14.3    1.00     42      0      0      0    83.8    1.00      4.3      4.3   100    14.7     0     7.272     1.5    0.106      76      0.04
    24     5  1997   172    3    13.7    1.00     72      0      0      0    83.8    1.00      3.9      3.9   100    14.7     2     7.416     1.7    0.123      76      0.04
    25     5  1997   173    3    16.1    1.00    100     13      0      0    83.8    1.00      4.6      4.0    87    14.7     0     7.544     1.9    0.141      76      0.05
    26     5  1997   174    3    17.8    1.00     -9     27      4      0    83.7    1.00      4.3      3.1    73    14.7     0     7.652     2.1    0.160      76      0.05
    27     5  1997   175    3    16.3    1.00     -9     41     11      0    83.5    1.00      4.8      2.8    59    14.7     0     7.738     2.4    0.182      76      0.06
    28     5  1997   176    3    15.9    1.00     -9     54     20      0    83.3    0.99      5.3      2.4    46    14.7     0     7.804     2.6    0.205      75      0.07
    29     5  1997   177    3    14.0    1.00     -9     65     31      0    83.0    0.98      6.2      2.1    35    14.7     0     7.854     2.9    0.230      74      0.07
    30     5  1997   178    3    14.9    1.00     -9     70     35      0    82.7    0.97      4.8      1.4    30    14.7     0     7.897     3.3    0.258      74      0.08
    31     5  1997   179    3    15.3    1.00     -9     76     44      0    82.4    0.97      4.6      1.1    24    14.7     0     7.931     3.6    0.288      73      0.09
     1     6  1997   180    3    13.2    1.00     -9      0      0      0    82.0    0.96      2.7      2.7   100    14.7     3     8.068     4.1    0.331      73      0.10
     2     6  1997   181    3    16.7    1.00     -9      0      0      0    82.0    0.96      2.5      2.5   100    14.7     0     8.210     4.6    0.380      73      0.12
     3     6  1997   182    4    16.5    1.00     -9      0      0      0    82.1    0.96      3.2      3.2   100    14.7     0     8.351     5.2    0.434      74      0.13
     4     6  1997   183    4    15.8    1.00     -9      0      0      0    82.1    0.96      3.7      3.7   100    14.7     0     8.492     5.8    0.495      74      0.15
     5     6  1997   184    4    14.9    1.00     -9      0      0      0    82.1    0.96      1.1      1.1   100    14.7     0     8.633     6.5    0.564      74      0.17
     6     6  1997   185    4    14.9    1.00     -9      0      0      0    82.1    0.96      2.5      2.5   100    14.7     0     8.774     7.3    0.640      74      0.19
     7     6  1997   186    4    17.3    1.00     -9      0      0      0    82.1    0.96      4.1      4.1   100    14.7     0     8.915     8.1    0.725      74      0.22
     8     6  1997   187    4    18.1    1.00     -9      0      0      0    82.2    0.95      4.4      4.4   100    14.7     0     9.056     9.0    0.818      75      0.24
     9     6  1997   188    4    18.4    1.00     -9      0      0      0    82.2    0.95      4.7      4.7   100    14.7     0     9.197    10.0    0.916      75      0.27
    10     6  1997   189    4    19.9    1.00     -9      0      0      0    82.2    0.95      4.7      4.7   100    14.7     0     9.337    10.9    1.016      75      0.29
    11     6  1997   190    4    20.4    1.00     -9      0      0      0    82.2    0.95      4.2      4.2   100    14.7     0     9.478    11.8    1.119      75      0.32
    12     6  1997   191    4    19.6    1.00     -9      0      0      0    82.2    0.95      5.0      5.0   100    14.7     0     9.618    12.7    1.224      75      0.34
    13     6  1997   192    4    19.3    1.00     -9      0      0      0    82.2    0.95      3.7      3.7   100    14.7     0     9.759    13.7    1.332      76      0.37
    14     6  1997   193    4    20.0    1.00     -9      0      0      0    82.2    0.95      4.4      4.4   100    14.7     0     9.899    14.6    1.443      76      0.39
    15     6  1997   194    4    20.9    1.00     -9     12      0      0    82.1    0.95      5.8      5.1    88    14.7     0    10.021    15.5    1.553      76      0.42
    16     6  1997   195    4    20.5    1.00     -9     26      0      0    81.7    0.94      5.2      3.8    74    14.7     0    10.124    16.4    1.660      76      0.44
    17     6  1997   196    4    20.3    1.00     -9     39      0      0    81.3    0.93      4.9      3.0    61    14.7     0    10.208    17.3    1.765      75      0.47
    18     6  1997   197    4    20.9    1.00     -9     45      0      0    80.8    0.92      3.8      2.1    55    14.7     0    10.282    18.2    1.869      75      0.49
    19     6  1997   198    4    20.3    1.00     -9     30      0      0    80.3    0.91      3.9      2.7    70    14.7     0    10.376    19.1    1.980      75      0.52
    20     6  1997   199    4    18.2    1.00     -9     44      0      0    79.9    0.90      4.1      2.3    56    14.7     0    10.450    20.0    2.087      75      0.54
    21     6  1997   200    4    17.3    1.00     -9     51      0      0    79.4    0.89      3.6      1.7    49    14.7     0    10.513    20.8    2.192      74      0.56
    22     6  1997   201    4    20.1    1.00     -9     64      0      0    78.8    0.88      4.8      1.7    36    14.7     0    10.560    21.7    2.292      74      0.59
    23     6  1997   202    4    18.8    1.00     -9     69      0      0    78.1    0.87      4.1      1.2    31    14.7     0    10.599    22.5    2.389      74      0.61
    24     6  1997   203    4    16.9    1.00     -9     76      0      0    77.5    0.85      4.2      1.0    24    14.7     0    10.630    23.4    2.483      73      0.63
    25     6  1997   204    4    17.0    1.00     -9     81      0      0    76.9    0.84      4.1      0.8    19    14.7     0    10.654    24.2    2.574      72      0.65
    26     6  1997   205    4    17.4    1.00     -9     83      0      0    76.2    0.83      3.4      0.6    17    14.7     0    10.674    25.0    2.664      72      0.67
    27     6  1997   206    4    20.5    1.00     -9     88      0      0    75.3    0.81      4.6      0.5    12    14.7     0    10.688    25.7    2.748      71      0.69
    28     6  1997   207    4    21.1    1.00     -9     91      0      0    74.3    0.79      4.2      0.4     9    14.7     0    10.698    26.5    2.831      71      0.71
    29     6  1997   208    4    20.8    1.00     -9     93      0      0    73.2    0.77      3.9      0.3     7    14.7     0    10.706    27.2    2.910      70      0.73
    30     6  1997   209    4    16.7    1.00     -9     95      0      0    72.2    0.75      3.2      0.2     5    14.7     0    10.712    27.9    2.988      70      0.75
     1     7  1997   210    4    17.4    1.00     -9     96      0      0    71.1    0.74      3.4      0.1     4    14.7     0    10.716    28.6    3.062      69      0.77
     2     7  1997   211    4    17.3    1.00     -9     98      0      0    70.0    0.71      3.1      0.1     2    14.7     0    10.718    29.2    3.134      69      0.78
     3     7  1997   212    4    21.1    1.00     -9     99      0      0    68.5    0.69      4.2      0.0     1    14.7     0    10.719    29.8    3.199      68      0.80
     4     7  1997   213    4    21.1    1.00     -9    100      0      0    66.9    0.66      2.8      0.0     0    14.7     0    10.719    30.0    3.218      68      0.80
     5     7  1997   214    4    19.2    1.00     -9     95      0      0    65.2    0.63      2.7      0.1     5    14.7     0    10.724    30.7    3.294      67      0.82
     6     7  1997   215    4    17.4    1.00     -9     99      0      0    63.6    0.61      2.7      0.0     1    14.7     0    10.725    31.3    3.359      67      0.84
     7     7  1997   216    4    17.9    1.00     -9    100      0      0    61.9    0.58      3.0      0.0     0    14.7     0    10.725    31.5    3.376      67      0.84
     8     7  1997   217    4    17.9    1.00     -9    100      0      0    60.0    0.55      3.2      0.0     0    14.7     0    10.725    31.6    3.392      66      0.84
     9     7  1997   218    4    18.1    1.00     -9    100      0      0    57.9    0.52      2.8      0.0     0    14.7     0    10.725    31.8    3.407      66      0.84
    10     7  1997   219    4    18.1    1.00     -9    100      0      0    55.7    0.48      2.6      0.0     0    14.7     0    10.725    31.9    3.422      66      0.85
    11     7  1997   220    4    18.6    1.00     -9    100      0      0    53.2    0.45      2.4      0.0     0    14.7     0    10.725    32.0    3.436      65      0.85
    12     7  1997   221    4    19.6    1.00     -9    100      0      0    50.4    0.41      2.1      0.0     0    14.7     0    10.725    32.2    3.450      65      0.85
    13     7  1997   222    4    20.4    1.00     -9    100      0      0    47.2    0.36      1.9      0.0     0    14.7     0    10.725    32.3    3.463      65      0.86
    14     7  1997   223    4    19.4    1.00     -9    100      0      0    43.9    0.32      1.7      0.0     0    14.7     0    10.725    32.4    3.476      65      0.86
    15     7  1997   224    4    19.3    1.00     -9    100      0      0    40.3    0.27      1.4      0.0     0    14.7     0    10.725    32.5    3.488      64      0.86
    16     7  1997   225    4    21.9    1.00     -9    100      0      0    35.9    0.22      1.4      0.0     0    14.7     0    10.725    32.6    3.499      64      0.86
    17     7  1997   226    4    20.7    1.00     -9    100      0      0    31.4    0.17      0.9      0.0     0    14.7     0    10.725    32.7    3.511      64      0.86
    18     7  1997   227    4    21.3    1.00     -9     76      0      0    26.2    0.12      0.5      0.1    24    14.7     0    10.729    33.5    3.596      64      0.88
    19     7  1997   228    4    19.6    1.00     -9     86      0      0    21.1    0.08      0.4      0.1    14    14.7     0    10.731    34.3    3.676      64      0.90
    20     7  1997   229    4    19.2    1.00     -9     95      0      0    15.7    0.05      0.2      0.0     5    14.7     0    10.731    34.9    3.747      64      0.91
    21     7  1997   230    4    18.9    1.00     -9     -9      0      0     0.0    0.00      0.0      0.0   100    14.7     0    10.731    34.9    3.747      64      0.91
    22     7  1997    -9    0    20.9    0.00     -9     -9      0      0     0.0    0.00      0.0      0.0   100    14.7     0    10.731    34.9    3.747      64      0.91
    23     7  1997    -9    0    22.2    0.00     -9     -9      0      0     0.0    0.00      0.0      0.0   100    14.7     0    10.731    34.9    3.747      64      0.91
    24     7  1997    -9    0    22.2    0.00     -9     -9      0      0     0.0    0.00      0.0      0.0   100    14.7     0    10.731    34.9    3.747      64      0.91
    25     7  1997    -9    0    22.4    0.00     -9     -9      0      0     0.0    0.00      0.0      0.0   100    14.7     0    10.731    34.9    3.747      64      0.91
    26     7  1997    -9    0    22.1    0.00     -9     -9      0      0     0.0    0.00      0.0      0.0   100    14.7     0    10.731    34.9    3.747      64      0.91
    27     7  1997    -9    0    22.8    0.00     -9     -9      0      0     0.0    0.00      0.0      0.0   100    14.7     0    10.731    34.9    3.747      64      0.91
    28     7  1997    -9    0    22.5    0.00     -9     -9      0      0     0.0    0.00      0.0      0.0   100    14.7     0    10.731    34.9    3.747      64      0.91
    29     7  1997    -9    0    21.8    0.00     -9     -9      0      0     0.0    0.00      0.0      0.0   100    14.7     0    10.731    34.9    3.747      64      0.91
    30     7  1997    -9    0    22.2    0.00     -9     -9      0      0     0.0    0.00      0.0      0.0   100    14.7     0    10.731    34.9    3.747      64      0.91
    31     7  1997    -9    0    22.1    0.00     -9     -9      0      0     0.0    0.00      0.0      0.0   100    14.7     0    10.731    34.9    3.747      64      0.91
     1     8  1997    -9    0    21.4    0.00     -9     -9      0      0     0.0    0.00      0.0      0.0   100    14.7     0    10.731    34.9    3.747      64      0.91
     2     8  1997    -9    0    21.8    0.00     -9     -9      0      0     0.0    0.00      0.0      0.0   100    14.7     0    10.731    34.9    3.747      64      0.91
     3     8  1997    -9    0    22.2    0.00     -9     -9      0      0     0.0    0.00      0.0      0.0   100    14.7     0    10.731    34.9    3.747      64      0.91
     4     8  1997    -9    0    23.0    0.00     -9     -9      0      0     0.0    0.00      0.0      0.0   100    14.7     0    10.731    34.9    3.747      64      0.91
     5     8  1997    -9    0    21.6    0.00     -9     -9      0      0     0.0    0.00      0.0      0.0   100    14.7     0    10.731    34.9    3.747      64      0.91
     6     8  1997    -9    0    21.6    0.00     -9     -9      0      0     0.0    0.00      0.0      0.0   100    14.7     0    10.731    34.9    3.747      64      0.91
     7     8  1997    -9    0    21.4    0.00     -9     -9      0      0     0.0    0.00      0.0      0.0   100    14.7     0    10.731    34.9    3.747      64      0.91
     8     8  1997    -9    0    22.5    0.00     -9     -9      0      0     0.0    0.00      0.0      0.0   100    14.7     0    10.731    34.9    3.747      64      0.91
     9     8  1997    -9    0    21.6    0.00     -9     -9      0      0     0.0    0.00      0.0      0.0   100    14.7     0    10.731    34.9    3.747      64      0.91
    10     8  1997    -9    0    23.1    0.00     -9     -9      0      0     0.0    0.00      0.0      0.0   100    14.7     0    10.731    34.9    3.747      64      0.91
    11     8  1997    -9    0    22.4    0.00     -9     -9      0      0     0.0    0.00      0.0      0.0   100    14.7     0    10.731    34.9    3.747      64      0.91
    12     8  1997    -9    0    23.2    0.00     -9     -9      0      0     0.0    0.00      0.0      0.0   100    14.7     0    10.731    34.9    3.747      64      0.91
    13     8  1997    -9    0    22.6    0.00     -9     -9      0      0     0.0    0.00      0.0      0.0   100    14.7     0    10.731    34.9    3.747      64      0.91
    14     8  1997    -9    0    22.3    0.00     -9     -9      0      0     0.0    0.00      0.0      0.0   100    14.7     0    10.731    34.9    3.747      64      0.91
    15     8  1997    -9    0    22.5    0.00     -9     -9      0      0     0.0    0.00      0.0      0.0   100    14.7     0    10.731    34.9    3.747      64      0.91
    16     8  1997    -9    0    22.6    0.00     -9     -9      0      0     0.0    0.00      0.0      0.0   100    14.7     0    10.731    34.9    3.747      64      0.91
    17     8  1997    -9    0    20.6    0.00     -9     -9      0      0     0.0    0.00      0.0      0.0   100    14.7     0    10.731    34.9    3.747      64      0.91
    18     8  1997    -9    0    20.6    0.00     -9     -9      0      0     0.0    0.00      0.0      0.0   100    14.7     0    10.731    34.9    3.747      64      0.91
    19     8  1997    -9    0    20.2    0.00     -9     -9      0      0     0.0    0.00      0.0      0.0   100    14.7     0    10.731    34.9    3.747      64      0.91
    20     8  1997    -9    0    20.5    0.00     -9     -9      0      0     0.0    0.00      0.0      0.0   100    14.7     0    10.731    34.9    3.747      64      0.91
    21     8  1997    -9    0    20.6    0.00     -9     -9      0      0     0.0    0.00      0.0      0.0   100    14.7     0    10.731    34.9    3.747      64      0.91
    22     8  1997    -9    0    20.6    0.00     -9     -9      0      0     0.0    0.00      0.0      0.0   100    14.7     0    10.731    34.9    3.747      64      0.91
    23     8  1997    -9    0    21.1    0.00     -9     -9      0      0     0.0    0.00      0.0      0.0   100    14.7     0    10.731    34.9    3.747      64      0.91

Legend

DAP          : Days after planting
Stage        : 0: before/after planting
Stage        : 1: emergence or transplant recovery
Stage        : 2: vegetative stage
Stage        : 3: flowering
Stage        : 4: yield formation and ripening
GD           : Growing degrees
Z            : Effective rooting depth
StExp        : Percent water stress reducing leaf expansion
StSto        : Percent water stress inducing stomatal closure
StSen        : Percent water stress triggering early canopy senescence
StSalt       : Percent salinity stress
CC           : Green Canopy Cover
Kc(Tr)       : Crop coefficient for transpiration
Trx          : Maximum crop transpiration
Tr           : Crop transpiration
Tr/Trx       : Relative crop transpiration (100 Tr/Trx)
WP           : Crop water productivity adjusted for CO2, soil fertility and products synthesized
StBio        : Percent temperature stress affecting biomass production
Biomass      : Cumulative biomass produced
HI           : Harvest Index adjusted for failure of pollination, inadequate photosynthesis and water stress
Yield Part   : Yield (HI x Biomass)
Brelative    : Relative biomass (Reference: no water, no soil fertility, no soil salinity stress)
WPet         : ET Water productivity for yield part (kg yield produced per m3 water evapotranspired)
