AquaCrop 4.0 (June 2012) - Output created on (date) : 01/05/2014   at (time) : 10:16:34
Water content in soil profile (WCTotal layer: 0.00 - 1.00 m) and root zone (Wr with Zrx = 1.00 m) - depth of restricted soil layer

   Day Month  Year   DAP Stage     WCTot   Wr(Zx)      Z       Wr    Wr(SAT)    Wr(FC)   Wr(exp)   Wr(sto)   Wr(sen)   Wr(PWP)
                                     mm       mm       m       mm        mm        mm        mm        mm        mm        mm
    22     9  1996    -9    0     219.9    219.9    0.00     -9.9      -9.9      -9.9      -9.9      -9.9      -9.9      -9.9
    23     9  1996    -9    0     240.2    240.2    0.00     -9.9      -9.9      -9.9      -9.9      -9.9      -9.9      -9.9
    24     9  1996    -9    0     237.2    237.2    0.00     -9.9      -9.9      -9.9      -9.9      -9.9      -9.9      -9.9
    25     9  1996    -9    0     240.3    240.3    0.00     -9.9      -9.9      -9.9      -9.9      -9.9      -9.9      -9.9
    26     9  1996    -9    0     243.7    243.7    0.00     -9.9      -9.9      -9.9      -9.9      -9.9      -9.9      -9.9
    27     9  1996    -9    0     239.7    239.7    0.00     -9.9      -9.9      -9.9      -9.9      -9.9      -9.9      -9.9
    28     9  1996    -9    0     236.7    236.7    0.00     -9.9      -9.9      -9.9      -9.9      -9.9      -9.9      -9.9
    29     9  1996    -9    0     234.7    234.7    0.00     -9.9      -9.9      -9.9      -9.9      -9.9      -9.9      -9.9
    30     9  1996    -9    0     233.5    233.5    0.00     -9.9      -9.9      -9.9      -9.9      -9.9      -9.9      -9.9
     1    10  1996    -9    0     231.2    231.2    0.00     -9.9      -9.9      -9.9      -9.9      -9.9      -9.9      -9.9
     2    10  1996    -9    0     234.7    234.7    0.00     -9.9      -9.9      -9.9      -9.9      -9.9      -9.9      -9.9
     3    10  1996    -9    0     231.7    231.7    0.00     -9.9      -9.9      -9.9      -9.9      -9.9      -9.9      -9.9
     4    10  1996    -9    0     229.9    229.9    0.00     -9.9      -9.9      -9.9      -9.9      -9.9      -9.9      -9.9
     5    10  1996    -9    0     228.7    228.7    0.00     -9.9      -9.9      -9.9      -9.9      -9.9      -9.9      -9.9
     6    10  1996    -9    0     227.9    227.9    0.00     -9.9      -9.9      -9.9      -9.9      -9.9      -9.9      -9.9
     7    10  1996    -9    0     270.9    270.9    0.00     -9.9      -9.9      -9.9      -9.9      -9.9      -9.9      -9.9
     8    10  1996    -9    0     280.9    280.9    0.00     -9.9      -9.9      -9.9      -9.9      -9.9      -9.9      -9.9
     9    10  1996    -9    0     276.6    276.6    0.00     -9.9      -9.9      -9.9      -9.9      -9.9      -9.9      -9.9
    10    10  1996    -9    0     272.5    272.5    0.00     -9.9      -9.9      -9.9      -9.9      -9.9      -9.9      -9.9
    11    10  1996    -9    0     270.2    270.2    0.00     -9.9      -9.9      -9.9      -9.9      -9.9      -9.9      -9.9
    12    10  1996    -9    0     268.7    268.7    0.00     -9.9      -9.9      -9.9      -9.9      -9.9      -9.9      -9.9
    13    10  1996    -9    0     266.5    266.5    0.00     -9.9      -9.9      -9.9      -9.9      -9.9      -9.9      -9.9
    14    10  1996    -9    0     275.2    275.2    0.00     -9.9      -9.9      -9.9      -9.9      -9.9      -9.9      -9.9
    15    10  1996    -9    0     282.2    282.2    0.00     -9.9      -9.9      -9.9      -9.9      -9.9      -9.9      -9.9
    16    10  1996    -9    0     303.7    303.7    0.00     -9.9      -9.9      -9.9      -9.9      -9.9      -9.9      -9.9
    17    10  1996    -9    0     310.5    310.5    0.00     -9.9      -9.9      -9.9      -9.9      -9.9      -9.9      -9.9
    18    10  1996    -9    0     308.5    308.5    0.00     -9.9      -9.9      -9.9      -9.9      -9.9      -9.9      -9.9
    19    10  1996    -9    0     306.9    306.9    0.00     -9.9      -9.9      -9.9      -9.9      -9.9      -9.9      -9.9
    20    10  1996    -9    0     305.4    305.4    0.00     -9.9      -9.9      -9.9      -9.9      -9.9      -9.9      -9.9
    21    10  1996    -9    0     303.9    303.9    0.00     -9.9      -9.9      -9.9      -9.9      -9.9      -9.9      -9.9
    22    10  1996    -9    0     302.2    302.2    0.00     -9.9      -9.9      -9.9      -9.9      -9.9      -9.9      -9.9
    23    10  1996    -9    0     300.1    300.1    0.00     -9.9      -9.9      -9.9      -9.9      -9.9      -9.9      -9.9
    24    10  1996    -9    0     297.7    297.7    0.00     -9.9      -9.9      -9.9      -9.9      -9.9      -9.9      -9.9
    25    10  1996    -9    0     296.3    296.3    0.00     -9.9      -9.9      -9.9      -9.9      -9.9      -9.9      -9.9
    26    10  1996    -9    0     295.2    295.2    0.00     -9.9      -9.9      -9.9      -9.9      -9.9      -9.9      -9.9
    27    10  1996    -9    0     294.4    294.4    0.00     -9.9      -9.9      -9.9      -9.9      -9.9      -9.9      -9.9
    28    10  1996    -9    0     293.9    293.9    0.00     -9.9      -9.9      -9.9      -9.9      -9.9      -9.9      -9.9
    29    10  1996    -9    0     292.0    292.0    0.00     -9.9      -9.9      -9.9      -9.9      -9.9      -9.9      -9.9
    30    10  1996    -9    0     291.1    291.1    0.00     -9.9      -9.9      -9.9      -9.9      -9.9      -9.9      -9.9
    31    10  1996    -9    0     290.0    290.0    0.00     -9.9      -9.9      -9.9      -9.9      -9.9      -9.9      -9.9
     1    11  1996    -9    0     289.3    289.3    0.00     -9.9      -9.9      -9.9      -9.9      -9.9      -9.9      -9.9
     2    11  1996    -9    0     288.5    288.5    0.00     -9.9      -9.9      -9.9      -9.9      -9.9      -9.9      -9.9
     3    11  1996    -9    0     288.0    288.0    0.00     -9.9      -9.9      -9.9      -9.9      -9.9      -9.9      -9.9
     4    11  1996    -9    0     287.7    287.7    0.00     -9.9      -9.9      -9.9      -9.9      -9.9      -9.9      -9.9
     5    11  1996    -9    0     287.3    287.3    0.00     -9.9      -9.9      -9.9      -9.9      -9.9      -9.9      -9.9
     6    11  1996    -9    0     287.0    287.0    0.00     -9.9      -9.9      -9.9      -9.9      -9.9      -9.9      -9.9
     7    11  1996    -9    0     286.9    286.9    0.00     -9.9      -9.9      -9.9      -9.9      -9.9      -9.9      -9.9
     8    11  1996    -9    0     286.5    286.5    0.00     -9.9      -9.9      -9.9      -9.9      -9.9      -9.9      -9.9
     9    11  1996    -9    0     286.3    286.3    0.00     -9.9      -9.9      -9.9      -9.9      -9.9      -9.9      -9.9
    10    11  1996    -9    0     286.0    286.0    0.00     -9.9      -9.9      -9.9      -9.9      -9.9      -9.9      -9.9
    11    11  1996    -9    0     285.4    285.4    0.00     -9.9      -9.9      -9.9      -9.9      -9.9      -9.9      -9.9
    12    11  1996    -9    0     284.8    284.8    0.00     -9.9      -9.9      -9.9      -9.9      -9.9      -9.9      -9.9
    13    11  1996    -9    0     284.3    284.3    0.00     -9.9      -9.9      -9.9      -9.9      -9.9      -9.9      -9.9
    14    11  1996    -9    0     283.9    283.9    0.00     -9.9      -9.9      -9.9      -9.9      -9.9      -9.9      -9.9
    15    11  1996    -9    0     283.5    283.5    0.00     -9.9      -9.9      -9.9      -9.9      -9.9      -9.9      -9.9
    16    11  1996    -9    0     298.2    298.2    0.00     -9.9      -9.9      -9.9      -9.9      -9.9      -9.9      -9.9
    17    11  1996    -9    0     328.9    328.9    0.00     -9.9      -9.9      -9.9      -9.9      -9.9      -9.9      -9.9
    18    11  1996    -9    0     346.0    346.0    0.00     -9.9      -9.9      -9.9      -9.9      -9.9      -9.9      -9.9
    19    11  1996    -9    0     361.0    361.0    0.00     -9.9      -9.9      -9.9      -9.9      -9.9      -9.9      -9.9
    20    11  1996    -9    0     378.8    378.8    0.00     -9.9      -9.9      -9.9      -9.9      -9.9      -9.9      -9.9
    21    11  1996    -9    0     367.3    367.3    0.00     -9.9      -9.9      -9.9      -9.9      -9.9      -9.9      -9.9
    22    11  1996    -9    0     356.7    356.7    0.00     -9.9      -9.9      -9.9      -9.9      -9.9      -9.9      -9.9
    23    11  1996    -9    0     354.2    354.2    0.00     -9.9      -9.9      -9.9      -9.9      -9.9      -9.9      -9.9
    24    11  1996    -9    0     351.6    351.6    0.00     -9.9      -9.9      -9.9      -9.9      -9.9      -9.9      -9.9
    25    11  1996    -9    0     352.1    352.1    0.00     -9.9      -9.9      -9.9      -9.9      -9.9      -9.9      -9.9
    26    11  1996    -9    0     354.5    354.5    0.00     -9.9      -9.9      -9.9      -9.9      -9.9      -9.9      -9.9
    27    11  1996    -9    0     347.6    347.6    0.00     -9.9      -9.9      -9.9      -9.9      -9.9      -9.9      -9.9
    28    11  1996    -9    0     342.3    342.3    0.00     -9.9      -9.9      -9.9      -9.9      -9.9      -9.9      -9.9
    29    11  1996    -9    0     338.0    338.0    0.00     -9.9      -9.9      -9.9      -9.9      -9.9      -9.9      -9.9
    30    11  1996    -9    0     332.7    332.7    0.00     -9.9      -9.9      -9.9      -9.9      -9.9      -9.9      -9.9
     1    12  1996    -9    0     325.5    325.5    0.00     -9.9      -9.9      -9.9      -9.9      -9.9      -9.9      -9.9
     2    12  1996    -9    0     319.9    319.9    0.00     -9.9      -9.9      -9.9      -9.9      -9.9      -9.9      -9.9
     3    12  1996    -9    0     315.9    315.9    0.00     -9.9      -9.9      -9.9      -9.9      -9.9      -9.9      -9.9
     4    12  1996     1    1     312.9    312.9    0.30     88.8     150.0      89.7      84.9      72.1      73.0      65.9
     5    12  1996     2    1     310.6    310.6    0.30     87.6     150.0      89.7      84.9      72.1      73.0      65.9
     6    12  1996     3    1     309.1    309.1    0.30     86.7     150.0      89.7      84.9      72.0      73.0      65.9
     7    12  1996     4    1     307.8    307.8    0.30     85.9     150.0      89.7      84.9      72.2      73.0      65.9
     8    12  1996     5    1     307.0    307.0    0.30     85.4     150.0      89.7      84.9      71.9      73.0      65.9
     9    12  1996     6    1     341.1    341.1    0.30    119.7     150.0      89.7      84.9      71.9      73.0      65.9
    10    12  1996     7    1     342.4    342.4    0.30    118.0     150.0      89.7      84.9      72.0      73.0      65.9
    11    12  1996     8    1     340.8    340.8    0.30    106.9     150.0      89.7      84.9      72.0      73.0      65.9
    12    12  1996     9    1     351.0    351.0    0.30    115.0     150.0      89.7      84.9      71.8      73.0      65.9
    13    12  1996    10    1     345.7    345.7    0.30    111.8     150.0      89.7      84.9      71.9      73.0      65.9
    14    12  1996    11    1     354.4    354.4    0.30    119.8     150.0      89.7      84.9      72.1      73.0      65.9
    15    12  1996    12    1     346.9    346.9    0.30    113.0     150.0      89.7      84.9      71.8      73.0      65.9
    16    12  1996    13    1     339.6    339.6    0.30    106.1     150.0      89.7      84.9      71.8      73.0      65.9
    17    12  1996    14    1     332.5    332.5    0.30     99.3     150.0      89.7      84.9      71.8      73.0      65.9
    18    12  1996    15    1     326.0    326.0    0.32    100.9     159.0      95.4      90.3      76.4      77.7      70.2
    19    12  1996    16    1     320.0    320.0    0.33    103.2     167.4     100.7      95.4      80.8      82.1      74.2
    20    12  1996    17    1     320.9    320.9    0.37    116.4     182.8     110.4     104.6      88.9      90.1      81.4
    21    12  1996    18    1     317.2    317.2    0.40    124.3     198.8     120.5     114.2      97.2      98.5      89.0
    22    12  1996    19    1     314.4    314.4    0.43    131.2     212.9     129.4     122.7     104.5     105.8      95.7
    23    12  1996    20    1     312.9    312.9    0.45    138.9     226.7     138.2     131.0     111.5     113.0     102.2
    24    12  1996    21    1     315.9    315.9    0.48    149.8     238.7     145.7     138.2     117.5     119.3     107.9
    25    12  1996    22    1     324.5    324.5    0.49    163.7     246.5     150.7     137.2     121.5     119.8     111.7
    26    12  1996    23    2     322.5    322.5    0.49    161.6     246.5     150.7     138.0     122.0     120.4     111.7
    27    12  1996    24    2     320.9    320.9    0.49    159.3     246.5     150.7     137.3     121.6     119.9     111.7
    28    12  1996    25    2     319.0    319.0    0.49    156.8     246.5     150.7     137.0     121.4     119.7     111.7
    29    12  1996    26    2     316.9    316.9    0.49    154.4     246.5     150.7     136.6     121.1     119.5     111.7
    30    12  1996    27    2     314.7    314.7    0.49    152.5     246.5     150.7     136.6     121.1     119.5     111.7
    31    12  1996    28    2     313.0    313.0    0.49    151.5     246.5     150.7     137.3     121.6     119.9     111.7
     1     1  1997    29    2     317.7    317.7    0.51    162.6     255.8     156.6     141.7     125.6     124.0     116.1
     2     1  1997    30    2     321.4    321.4    0.53    173.3     266.4     163.3     148.4     131.5     129.7     121.1
     3     1  1997    31    2     330.1    330.1    0.56    189.2     277.9     170.6     154.8     137.3     135.5     126.5
     4     1  1997    32    2     339.4    339.4    0.57    202.6     284.9     175.0     158.7     140.7     138.9     129.9
     5     1  1997    33    2     350.3    350.3    0.58    215.9     290.0     178.2     161.8     143.5     141.5     132.3
     6     1  1997    34    2     347.3    347.3    0.59    214.1     295.1     181.4     164.5     145.9     144.0     134.7
     7     1  1997    35    2     341.8    341.8    0.60    211.2     301.0     185.1     168.1     149.1     147.1     137.5
     8     1  1997    36    2     335.1    335.1    0.61    208.2     307.3     189.1     171.9     152.4     150.4     140.5
     9     1  1997    37    2     335.1    335.1    0.63    213.1     314.5     193.7     175.5     155.8     153.7     143.9
    10     1  1997    38    2     332.4    332.4    0.64    213.7     318.2     196.0     177.3     157.4     155.4     145.6
    11     1  1997    39    2     327.0    327.0    0.65    212.9     324.0     199.6     181.7     161.1     159.0     148.4
    12     1  1997    40    2     321.9    321.9    0.66    212.3     329.8     203.3     186.2     164.9     162.6     151.1
    13     1  1997    41    2     317.4    317.4    0.67    211.6     335.4     206.9     189.7     167.9     165.6     153.8
    14     1  1997    42    2     313.7    313.7    0.68    212.0     341.4     210.7     192.7     170.7     168.4     156.6
    15     1  1997    43    2     310.8    310.8    0.69    213.4     347.4     214.4     195.8     173.5     171.2     159.5
    16     1  1997    44    2     309.1    309.1    0.70    214.3     351.1     216.8     196.7     174.6     172.3     161.2
    17     1  1997    45    2     308.0    308.0    0.71    215.0     353.5     218.3     197.7     175.6     173.3     162.4
    18     1  1997    46    2     307.1    307.1    0.71    214.5     353.8     218.5     198.1     175.9     173.6     162.5
    19     1  1997    47    2     306.7    306.7    0.71    215.9     356.5     220.2     199.2     177.0     174.7     163.8
    20     1  1997    48    2     306.1    306.1    0.73    220.5     364.7     225.4     204.8     181.7     179.3     167.7
    21     1  1997    49    2     305.8    305.8    0.75    225.6     373.2     230.8     210.6     186.7     184.2     171.7
    22     1  1997    50    2     304.5    304.5    0.76    229.3     381.0     235.7     215.1     190.7     188.2     175.4
    23     1  1997    51    2     303.4    303.4    0.78    233.0     388.6     240.5     219.7     194.7     192.1     179.0
    24     1  1997    52    2     302.7    302.7    0.79    236.3     394.9     244.5     222.4     197.3     194.7     182.0
    25     1  1997    53    2     302.1    302.1    0.80    239.1     400.4     247.9     225.5     200.2     197.5     184.6
    26     1  1997    54    2     301.3    301.3    0.81    241.7     405.7     251.3     229.3     203.4     200.7     187.1
    27     1  1997    55    2     300.5    300.5    0.82    244.6     411.6     255.0     233.0     206.6     203.8     189.9
    28     1  1997    56    2     299.8    299.8    0.84    247.8     417.9     259.0     236.3     209.6     206.8     192.9
    29     1  1997    57    2     298.8    298.8    0.85    250.8     424.1     262.9     241.1     213.6     210.7     195.8
    30     1  1997    58    2     297.9    297.9    0.86    252.5     428.0     265.4     243.0     215.4     212.5     197.7
    31     1  1997    59    2     297.2    297.2    0.86    253.6     431.0     267.3     244.7     216.9     214.0     199.1
     1     2  1997    60    2     296.6    296.6    0.87    255.6     435.2     270.0     246.4     218.6     215.7     201.1
     2     2  1997    61    2     295.8    295.8    0.88    256.8     438.4     272.0     248.2     220.2     217.3     202.6
     3     2  1997    62    2     295.0    295.0    0.88    258.0     441.5     273.9     250.0     221.8     218.8     204.1
     4     2  1997    63    2     294.9    294.9    0.89    259.6     444.1     275.6     250.2     222.3     219.4     205.3
     5     2  1997    64    2     297.1    297.1    0.90    264.0     447.6     277.8     251.7     223.7     220.8     207.0
     6     2  1997    65    2     296.6    296.6    0.91    266.7     452.6     281.0     256.4     227.5     224.5     209.4
     7     2  1997    66    2     294.8    294.8    0.91    267.9     457.4     284.0     261.6     231.6     228.4     211.6
     8     2  1997    67    2     293.5    293.5    0.92    269.2     461.5     286.6     263.2     233.2     230.0     213.6
     9     2  1997    68    2     292.5    292.5    0.93    270.7     465.5     289.1     265.0     234.9     231.7     215.5
    10     2  1997    69    2     291.8    291.8    0.94    273.0     470.3     292.1     266.6     236.6     233.5     217.7
    11     2  1997    70    2     291.0    291.0    0.95    275.3     475.1     295.2     269.7     239.3     236.1     220.0
    12     2  1997    71    2     290.4    290.4    0.96    278.4     481.0     298.9     272.6     241.9     238.7     222.8
    13     2  1997    72    2     289.7    289.7    0.97    281.3     486.8     302.5     276.4     245.3     242.0     225.5
    14     2  1997    73    2     288.8    288.8    0.98    283.3     491.3     305.4     279.6     247.9     244.6     227.7
    15     2  1997    74    2     296.6    296.6    0.99    294.6     496.8     308.9     280.0     248.9     245.7     230.3
    16     2  1997    75    2     295.6    295.6    1.00    295.3     499.5     310.6     286.1     253.4     249.9     231.6
    17     2  1997    76    2     293.8    293.8    1.00    293.8     500.0     310.9     286.1     253.4     250.0     231.8
    18     2  1997    77    2     292.3    292.3    1.00    292.3     500.0     310.9     286.1     253.4     250.0     231.8
    19     2  1997    78    2     290.8    290.8    1.00    290.8     500.0     310.9     286.1     253.4     250.0     231.8
    20     2  1997    79    2     289.3    289.3    1.00    289.3     500.0     310.9     286.4     253.6     250.1     231.8
    21     2  1997    80    2     288.3    288.3    1.00    288.3     500.0     310.9     284.7     252.4     249.1     231.8
    22     2  1997    81    2     287.1    287.1    1.00    287.1     500.0     310.9     285.0     252.6     249.2     231.8
    23     2  1997    82    2     286.0    286.0    1.00    286.0     500.0     310.9     285.2     252.8     249.4     231.8
    24     2  1997    83    2     286.0    286.0    1.00    286.0     500.0     310.9     282.9     251.3     248.0     231.8
    25     2  1997    84    2     285.1    285.1    1.00    285.1     500.0     310.9     282.9     251.3     248.0     231.8
    26     2  1997    85    2     284.5    284.5    1.00    284.5     500.0     310.9     282.6     251.1     247.8     231.8
    27     2  1997    86    2     285.8    285.8    1.00    285.8     500.0     310.9     286.1     253.4     250.0     231.8
    28     2  1997    87    2     283.5    283.5    1.00    283.5     500.0     310.9     286.7     253.8     250.3     231.8
     1     3  1997    88    2     280.8    280.8    1.00    280.8     500.0     310.9     287.6     254.4     250.9     231.8
     2     3  1997    89    2     278.2    278.2    1.00    278.2     500.0     310.9     288.4     255.0     251.4     231.8
     3     3  1997    90    2     275.8    275.8    1.00    275.8     500.0     310.9     289.0     255.4     251.8     231.8
     4     3  1997    91    2     273.6    273.6    1.00    273.6     500.0     310.9     288.1     254.8     251.2     231.8
     5     3  1997    92    2     272.3    272.3    1.00    272.3     500.0     310.9     285.2     252.8     249.4     231.8
     6     3  1997    93    2     271.1    271.1    1.00    271.1     500.0     310.9     284.4     252.2     248.9     231.8
     7     3  1997    94    2     268.5    268.5    1.00    268.5     500.0     310.9     289.6     255.8     252.1     231.8
     8     3  1997    95    2     266.0    266.0    1.00    266.0     500.0     310.9     288.7     255.2     251.6     231.8
     9     3  1997    96    2     263.7    263.7    1.00    263.7     500.0     310.9     288.4     255.0     251.4     231.8
    10     3  1997    97    2     260.8    260.8    1.00    260.8     500.0     310.9     290.2     256.2     252.5     231.8
    11     3  1997    98    2     258.6    258.6    1.00    258.6     500.0     310.9     287.9     254.6     251.0     231.8
    12     3  1997    99    2     255.8    255.8    1.00    255.8     500.0     310.9     289.9     256.0     252.3     231.8
    13     3  1997   100    2     253.3    253.3    1.00    253.3     500.0     310.9     289.0     255.4     251.8     231.8
    14     3  1997   101    2     251.3    251.3    1.00    251.3     500.0     310.9     287.6     254.4     250.9     231.8
    15     3  1997   102    2     249.4    249.4    1.00    249.4     500.0     310.9     287.9     254.6     251.0     231.8
    16     3  1997   103    2     247.5    247.5    1.00    247.5     500.0     310.9     289.3     255.6     251.9     231.8
    17     3  1997   104    2     245.9    245.9    1.00    245.9     500.0     310.9     288.1     254.8     258.4     231.8
    18     3  1997   105    2     244.5    244.5    1.00    244.5     500.0     310.9     287.9     254.6     258.2     231.8
    19     3  1997   106    2     243.3    243.3    1.00    243.3     500.0     310.9     287.6     254.4     258.1     231.8
    20     3  1997   107    2     242.1    242.1    1.00    242.1     500.0     310.9     288.7     255.2     258.7     231.8
    21     3  1997   108    2     241.0    241.0    1.00    241.0     500.0     310.9     288.4     255.0     258.5     231.8
    22     3  1997   109    2     240.2    240.2    1.00    240.2     500.0     310.9     287.6     254.4     258.1     231.8

Legend

DAP          : Days after planting
Stage        : 0: before/after planting
Stage        : 1: emergence or transplant recovery
Stage        : 2: vegetative stage
Stage        : 3: flowering
Stage        : 4: yield formation and ripening
WCTot        : Water content in total soil profile (layer: 0.00 - 1.00 m)
Wr(Zx)       : Water content in maximum effective root zone (Zx = 1.00 m - depth of restricted soil layer)
Z            : Effective rooting depth
Wr           : Water content in effective root zone
Wr(Sat)      : Water content in effective root zone if saturated
Wr(FC)       : Water content in effective root zone at field capacity
Wr(exp)      : Water content in effective root zone at upper threshold for leaf expansion
Wr(sto)      : Water content in effective root zone at upper threshold for stomatal closure
Wr(sen)      : Water content in effective root zone at upper threshold for early canopy senescence
Wr(PWP)      : Water content in effective root zone at permanent wilting point
