AquaCrop 4.0 (June 2012) - Output created on (date) : 11/13/2015   at (time) : 4:33:04 PM
Soil Water Content at various depths (at center of compartments)

                 at depth (m):      0.05        0.15        0.25        0.35        0.45        0.55        0.65        0.75        0.85        0.95        1.05        1.15
   Day Month  Year   DAP Stage   WC1(vol%)   WC2(vol%)   WC3(vol%)   WC4(vol%)   WC5(vol%)   WC6(vol%)   WC7(vol%)   WC8(vol%)   WC9(vol%)  WC10(vol%)  WC11(vol%)  WC12(vol%)
     1     9  2012    -9    0       42.5        44.4        44.4        36.2        33.9        33.9        34.0        34.1        34.2        34.4        34.7        35.0
     2     9  2012    -9    0       34.0        38.2        38.2        38.0        36.7        35.8        35.5        35.1        34.8        34.7        34.7        35.0
     3     9  2012    -9    0       31.5        35.7        35.7        35.6        35.3        35.2        35.1        35.0        34.8        34.7        34.7        35.0
     4     9  2012    -9    0       29.4        34.7        34.7        34.7        34.5        34.5        34.5        34.5        34.4        34.4        34.7        35.0
     5     9  2012    -9    0       27.8        34.3        34.3        34.2        34.2        34.2        34.2        34.2        34.2        34.4        34.7        35.0
     6     9  2012    -9    0       26.4        34.1        34.1        34.0        34.0        34.0        34.0        34.1        34.2        34.4        34.7        35.0
     7     9  2012    -9    0       38.7        34.0        34.0        34.0        34.0        34.0        34.0        34.1        34.2        34.4        34.7        35.0
     8     9  2012    -9    0       42.6        44.4        44.4        44.4        34.4        34.0        34.0        34.1        34.2        34.4        34.7        35.0
     9     9  2012    -9    0       35.6        38.2        38.2        38.2        38.0        36.8        36.0        35.5        35.2        35.0        34.8        35.0
    10     9  2012    -9    0       42.5        44.4        35.7        35.7        35.7        35.5        35.4        35.3        35.1        35.0        34.9        35.0
    11     9  2012    -9    0       35.1        38.2        37.9        36.2        35.5        35.2        35.1        34.9        34.8        34.8        34.7        35.0
    12     9  2012    -9    0       31.8        35.7        35.6        35.3        35.1        34.9        34.8        34.7        34.6        34.6        34.7        35.0
    13     9  2012    -9    0       28.0        34.7        34.6        34.5        34.4        34.4        34.4        34.4        34.4        34.4        34.7        35.0
    14     9  2012    -9    0       25.3        34.3        34.2        34.2        34.1        34.1        34.1        34.1        34.2        34.4        34.7        35.0
    15     9  2012    -9    0       22.9        34.1        34.0        34.0        34.0        34.0        34.0        34.1        34.2        34.4        34.7        35.0
    16     9  2012    -9    0       22.6        34.0        34.0        34.0        33.9        33.9        34.0        34.1        34.2        34.4        34.7        35.0
    17     9  2012    -9    0       20.7        33.9        33.9        33.9        33.9        33.9        34.0        34.1        34.2        34.4        34.7        35.0
    18     9  2012    -9    0       18.7        33.9        33.9        33.9        33.9        33.9        34.0        34.1        34.2        34.4        34.7        35.0
    19     9  2012    -9    0       17.1        33.9        33.9        33.9        33.9        33.9        34.0        34.1        34.2        34.4        34.7        35.0
    20     9  2012    -9    0       16.9        33.9        33.9        33.9        33.9        33.9        34.0        34.1        34.2        34.4        34.7        35.0
    21     9  2012    -9    0       16.7        33.9        33.9        33.9        33.9        33.9        34.0        34.1        34.2        34.4        34.7        35.0
    22     9  2012    -9    0       16.1        33.9        33.9        33.9        33.9        33.9        34.0        34.1        34.2        34.4        34.7        35.0
    23     9  2012    -9    0       15.5        33.9        33.9        33.9        33.9        33.9        34.0        34.1        34.2        34.4        34.7        35.0
    24     9  2012    -9    0       15.0        33.9        33.9        33.9        33.9        33.9        34.0        34.1        34.2        34.4        34.7        35.0
    25     9  2012    -9    0       22.3        33.9        33.9        33.9        33.9        33.9        34.0        34.1        34.2        34.4        34.7        35.0
    26     9  2012    -9    0       20.2        33.9        33.9        33.9        33.9        33.9        34.0        34.1        34.2        34.4        34.7        35.0
    27     9  2012    -9    0       17.2        33.9        33.9        33.9        33.9        33.9        34.0        34.1        34.2        34.4        34.7        35.0
    28     9  2012    -9    0       14.8        33.9        33.9        33.9        33.9        33.9        34.0        34.1        34.2        34.4        34.7        35.0
    29     9  2012    -9    0       14.0        33.9        33.9        33.9        33.9        33.9        34.0        34.1        34.2        34.4        34.7        35.0
    30     9  2012    -9    0       13.2        33.9        33.9        33.9        33.9        33.9        34.0        34.1        34.2        34.4        34.7        35.0
     1    10  2012    -9    0       12.6        33.9        33.9        33.9        33.9        33.9        34.0        34.1        34.2        34.4        34.7        35.0
     2    10  2012    -9    0       19.1        33.9        33.9        33.9        33.9        33.9        34.0        34.1        34.2        34.4        34.7        35.0
     3    10  2012    -9    0       18.2        33.9        33.9        33.9        33.9        33.9        34.0        34.1        34.2        34.4        34.7        35.0
     4    10  2012    -9    0       17.5        33.9        33.9        33.9        33.9        33.9        34.0        34.1        34.2        34.4        34.7        35.0
     5    10  2012    -9    0       16.6        33.9        33.9        33.9        33.9        33.9        34.0        34.1        34.2        34.4        34.7        35.0
     6    10  2012    -9    0       16.1        33.9        33.9        33.9        33.9        33.9        34.0        34.1        34.2        34.4        34.7        35.0
     7    10  2012     1    1       15.7        33.9        33.9        33.9        33.9        33.9        34.0        34.1        34.2        34.4        34.7        35.0
     8    10  2012     2    1       17.1        33.9        33.9        33.9        33.9        33.9        34.0        34.1        34.2        34.4        34.7        35.0
     9    10  2012     3    1       16.3        33.9        33.9        33.9        33.9        33.9        34.0        34.1        34.2        34.4        34.7        35.0
    10    10  2012     4    1       15.5        33.9        33.9        33.9        33.9        33.9        34.0        34.1        34.2        34.4        34.7        35.0
    11    10  2012     5    1       15.1        33.9        33.9        33.9        33.9        33.9        34.0        34.1        34.2        34.4        34.7        35.0
    12    10  2012     6    2       14.7        33.9        33.9        33.9        33.9        33.9        34.0        34.1        34.2        34.4        34.7        35.0
    13    10  2012     7    2       14.1        33.9        33.9        33.9        33.9        33.9        34.0        34.1        34.2        34.4        34.7        35.0
    14    10  2012     8    2       13.6        33.9        33.9        33.9        33.9        33.9        34.0        34.1        34.2        34.4        34.7        35.0
    15    10  2012     9    2       13.2        33.9        33.9        33.9        33.9        33.9        34.0        34.1        34.2        34.4        34.7        35.0
    16    10  2012    10    2       15.2        33.9        33.9        33.9        33.9        33.9        34.0        34.1        34.2        34.4        34.7        35.0
    17    10  2012    11    2       13.0        33.9        33.9        33.9        33.9        33.9        34.0        34.1        34.2        34.4        34.7        35.0
    18    10  2012    12    2       12.4        33.9        33.9        33.9        33.9        33.9        34.0        34.1        34.2        34.4        34.7        35.0
    19    10  2012    13    2       12.0        33.7        33.9        33.9        33.9        33.9        34.0        34.1        34.2        34.4        34.7        35.0
    20    10  2012    14    2       11.7        33.4        33.9        33.9        33.9        33.9        34.0        34.1        34.2        34.4        34.7        35.0
    21    10  2012    15    2       11.5        33.0        33.9        33.9        33.9        33.9        34.0        34.1        34.2        34.4        34.7        35.0
    22    10  2012    16    2       11.3        32.4        33.9        33.9        33.9        33.9        34.0        34.1        34.2        34.4        34.7        35.0
    23    10  2012    17    2       12.6        32.4        33.9        33.9        33.9        33.9        34.0        34.1        34.2        34.4        34.7        35.0
    24    10  2012    18    2       11.3        31.6        33.9        33.9        33.9        33.9        34.0        34.1        34.2        34.4        34.7        35.0
    25    10  2012    19    2       10.9        30.9        33.9        33.9        33.9        33.9        34.0        34.1        34.2        34.4        34.7        35.0
    26    10  2012    20    2       10.7        29.6        33.9        33.9        33.9        33.9        34.0        34.1        34.2        34.4        34.7        35.0
    27    10  2012    21    2       10.7        28.8        33.9        33.9        33.9        33.9        34.0        34.1        34.2        34.4        34.7        35.0
    28    10  2012    22    2       10.6        27.9        33.9        33.9        33.9        33.9        34.0        34.1        34.2        34.4        34.7        35.0
    29    10  2012    23    2       11.7        26.7        33.9        33.9        33.9        33.9        34.0        34.1        34.2        34.4        34.7        35.0
    30    10  2012    24    2       11.4        25.2        33.9        33.9        33.9        33.9        34.0        34.1        34.2        34.4        34.7        35.0
    31    10  2012    25    2       11.1        23.4        33.9        33.9        33.9        33.9        34.0        34.1        34.2        34.4        34.7        35.0
     1    11  2012    26    2       10.9        22.3        33.9        33.9        33.9        33.9        34.0        34.1        34.2        34.4        34.7        35.0
     2    11  2012    27    2       10.8        20.6        33.9        33.9        33.9        33.9        34.0        34.1        34.2        34.4        34.7        35.0
     3    11  2012    28    2       10.6        18.7        32.6        33.9        33.9        33.9        34.0        34.1        34.2        34.4        34.7        35.0
     4    11  2012    29    2       10.6        17.4        32.6        33.9        33.9        33.9        34.0        34.1        34.2        34.4        34.7        35.0
     5    11  2012    30    2       10.6        16.1        32.6        33.9        33.9        33.9        34.0        34.1        34.2        34.4        34.7        35.0
     6    11  2012    31    2       10.6        14.9        32.6        33.9        33.9        33.9        34.0        34.1        34.2        34.4        34.7        35.0
     7    11  2012    32    2       12.6        14.7        32.6        33.9        33.9        33.9        34.0        34.1        34.2        34.4        34.7        35.0
     8    11  2012    33    2       12.1        13.8        32.6        33.9        33.9        33.9        34.0        34.1        34.2        34.4        34.7        35.0
     9    11  2012    34    2       12.0        12.8        32.6        33.9        33.9        33.9        34.0        34.1        34.2        34.4        34.7        35.0
    10    11  2012    35    2       12.4        12.3        32.3        33.9        33.9        33.9        34.0        34.1        34.2        34.4        34.7        35.0
    11    11  2012    36    2       12.1        12.1        31.3        33.9        33.9        33.9        34.0        34.1        34.2        34.4        34.7        35.0
    12    11  2012    37    2       12.0        12.0        29.9        33.9        33.9        33.9        34.0        34.1        34.2        34.4        34.7        35.0
    13    11  2012    38    2       12.0        12.0        28.2        33.9        33.9        33.9        34.0        34.1        34.2        34.4        34.7        35.0
    14    11  2012    39    2       11.9        12.0        27.3        33.9        33.9        33.9        34.0        34.1        34.2        34.4        34.7        35.0
    15    11  2012    40    2       12.1        12.0        26.3        33.9        33.9        33.9        34.0        34.1        34.2        34.4        34.7        35.0
    16    11  2012    41    2       12.0        12.0        24.9        33.9        33.9        33.9        34.0        34.1        34.2        34.4        34.7        35.0
    17    11  2012    42    2       12.0        12.0        23.9        33.9        33.9        33.9        34.0        34.1        34.2        34.4        34.7        35.0
    18    11  2012    43    2       11.9        12.0        22.1        33.7        33.9        33.9        34.0        34.1        34.2        34.4        34.7        35.0
    19    11  2012    44    2       11.9        12.0        20.7        33.7        33.9        33.9        34.0        34.1        34.2        34.4        34.7        35.0
    20    11  2012    45    2       11.9        12.0        19.8        33.7        33.9        33.9        34.0        34.1        34.2        34.4        34.7        35.0
    21    11  2012    46    2       11.9        12.0        18.7        33.7        33.9        33.9        34.0        34.1        34.2        34.4        34.7        35.0
    22    11  2012    47    2       11.8        12.0        17.0        33.3        33.9        33.9        34.0        34.1        34.2        34.4        34.7        35.0
    23    11  2012    48    2       11.8        12.0        15.5        33.3        33.9        33.9        34.0        34.1        34.2        34.4        34.7        35.0
    24    11  2012    49    2       11.8        12.0        14.5        33.3        33.9        33.9        34.0        34.1        34.2        34.4        34.7        35.0
    25    11  2012    50    2       42.8        44.4        29.2        33.3        33.9        33.9        34.0        34.1        34.2        34.4        34.7        35.0
    26    11  2012    51    2       36.5        38.2        36.7        34.9        34.3        34.2        34.1        34.1        34.2        34.4        34.7        35.0
    27    11  2012    52    2       33.6        35.7        35.4        35.2        34.8        34.6        34.4        34.3        34.2        34.4        34.7        35.0
    28    11  2012    53    2       32.0        34.7        34.5        34.5        34.4        34.4        34.3        34.3        34.2        34.4        34.7        35.0
    29    11  2012    54    2       31.3        34.3        34.2        34.2        34.1        34.1        34.1        34.1        34.2        34.4        34.7        35.0
    30    11  2012    55    2       30.6        34.1        34.0        34.0        34.0        34.0        34.0        34.1        34.2        34.4        34.7        35.0
     1    12  2012    56    2       29.7        34.0        34.0        33.9        33.9        33.9        34.0        34.1        34.2        34.4        34.7        35.0
     2    12  2012    57    2       28.9        33.9        33.9        33.9        33.9        33.9        34.0        34.1        34.2        34.4        34.7        35.0
     3    12  2012    58    2       27.5        33.9        33.9        33.9        33.9        33.9        34.0        34.1        34.2        34.4        34.7        35.0
     4    12  2012    59    2       26.2        33.9        33.9        33.9        33.9        33.9        34.0        34.1        34.2        34.4        34.7        35.0
     5    12  2012    60    2       25.1        33.9        33.9        33.9        33.9        33.9        34.0        34.1        34.2        34.4        34.7        35.0
     6    12  2012    61    2       23.5        33.9        33.9        33.9        33.9        33.9        34.0        34.1        34.2        34.4        34.7        35.0
     7    12  2012    62    2       22.6        33.9        33.9        33.9        33.9        33.9        34.0        34.1        34.2        34.4        34.7        35.0
     8    12  2012    63    2       21.0        33.9        33.9        33.9        33.9        33.9        34.0        34.1        34.2        34.4        34.7        35.0
     9    12  2012    64    2       20.2        33.9        33.9        33.9        33.9        33.9        34.0        34.1        34.2        34.4        34.7        35.0
    10    12  2012    65    2       19.4        33.9        33.9        33.9        33.9        33.9        34.0        34.1        34.2        34.4        34.7        35.0
    11    12  2012    66    2       18.7        33.9        33.9        33.9        33.9        33.9        34.0        34.1        34.2        34.4        34.7        35.0
    12    12  2012    67    2       18.1        33.9        33.9        33.9        33.9        33.9        34.0        34.1        34.2        34.4        34.7        35.0
    13    12  2012    68    2       17.4        33.9        33.9        33.9        33.9        33.9        34.0        34.1        34.2        34.4        34.7        35.0
    14    12  2012    69    2       16.8        33.9        33.9        33.9        33.9        33.9        34.0        34.1        34.2        34.4        34.7        35.0
    15    12  2012    70    2       16.3        33.9        33.9        33.9        33.9        33.9        34.0        34.1        34.2        34.4        34.7        35.0
    16    12  2012    71    2       15.7        33.9        33.9        33.9        33.9        33.9        34.0        34.1        34.2        34.4        34.7        35.0
    17    12  2012    72    2       14.7        33.9        33.9        33.9        33.9        33.9        34.0        34.1        34.2        34.4        34.7        35.0
    18    12  2012    73    2       13.8        33.9        33.9        33.9        33.9        33.9        34.0        34.1        34.2        34.4        34.7        35.0
    19    12  2012    74    2       13.2        33.9        33.9        33.9        33.9        33.9        34.0        34.1        34.2        34.4        34.7        35.0
    20    12  2012    75    2       14.2        33.9        33.9        33.9        33.9        33.9        34.0        34.1        34.2        34.4        34.7        35.0
    21    12  2012    76    2       13.2        33.9        33.9        33.9        33.9        33.9        34.0        34.1        34.2        34.4        34.7        35.0
    22    12  2012    77    2       12.4        33.6        33.9        33.9        33.9        33.9        34.0        34.1        34.2        34.4        34.7        35.0
    23    12  2012    78    2       12.1        32.8        33.9        33.9        33.9        33.9        34.0        34.1        34.2        34.4        34.7        35.0
    24    12  2012    79    2       12.0        32.2        33.9        33.9        33.9        33.9        34.0        34.1        34.2        34.4        34.7        35.0
    25    12  2012    80    2       12.0        31.6        33.9        33.9        33.9        33.9        34.0        34.1        34.2        34.4        34.7        35.0
    26    12  2012    81    2       12.0        30.9        33.9        33.9        33.9        33.9        34.0        34.1        34.2        34.4        34.7        35.0
    27    12  2012    82    2       12.0        30.3        33.9        33.9        33.9        33.9        34.0        34.1        34.2        34.4        34.7        35.0
    28    12  2012    83    2       12.0        29.5        33.9        33.9        33.9        33.9        34.0        34.1        34.2        34.4        34.7        35.0
    29    12  2012    84    2       12.0        28.0        33.9        33.9        33.9        33.9        34.0        34.1        34.2        34.4        34.7        35.0
    30    12  2012    85    2       11.9        26.8        33.9        33.9        33.9        33.9        34.0        34.1        34.2        34.4        34.7        35.0
    31    12  2012    86    2       11.9        25.6        33.9        33.9        33.9        33.9        34.0        34.1        34.2        34.4        34.7        35.0
     1     1  2013    87    2       11.9        24.2        33.9        33.9        33.9        33.9        34.0        34.1        34.2        34.4        34.7        35.0
     2     1  2013    88    2       11.9        23.4        33.9        33.9        33.9        33.9        34.0        34.1        34.2        34.4        34.7        35.0
     3     1  2013    89    2       11.9        22.3        33.9        33.9        33.9        33.9        34.0        34.1        34.2        34.4        34.7        35.0
     4     1  2013    90    2       11.9        21.7        33.9        33.9        33.9        33.9        34.0        34.1        34.2        34.4        34.7        35.0
     5     1  2013    91    2       11.9        20.7        33.9        33.9        33.9        33.9        34.0        34.1        34.2        34.4        34.7        35.0
     6     1  2013    92    2       11.8        20.2        33.9        33.9        33.9        33.9        34.0        34.1        34.2        34.4        34.7        35.0
     7     1  2013    93    2       11.8        19.6        33.9        33.9        33.9        33.9        34.0        34.1        34.2        34.4        34.7        35.0
     8     1  2013    94    2       11.8        18.3        33.9        33.9        33.9        33.9        34.0        34.1        34.2        34.4        34.7        35.0
     9     1  2013    95    2       11.8        17.6        33.9        33.9        33.9        33.9        34.0        34.1        34.2        34.4        34.7        35.0
    10     1  2013    96    2       11.8        16.7        33.9        33.9        33.9        33.9        34.0        34.1        34.2        34.4        34.7        35.0
    11     1  2013    97    2       11.8        15.2        33.9        33.9        33.9        33.9        34.0        34.1        34.2        34.4        34.7        35.0
    12     1  2013    98    2       11.8        14.5        33.9        33.9        33.9        33.9        34.0        34.1        34.2        34.4        34.7        35.0
    13     1  2013    99    2       11.8        13.8        33.9        33.9        33.9        33.9        34.0        34.1        34.2        34.4        34.7        35.0
    14     1  2013   100    2       11.7        12.8        33.9        33.9        33.9        33.9        34.0        34.1        34.2        34.4        34.7        35.0
    15     1  2013   101    2       11.7        12.3        32.9        33.9        33.9        33.9        34.0        34.1        34.2        34.4        34.7        35.0
    16     1  2013   102    2       11.7        12.1        31.5        33.9        33.9        33.9        34.0        34.1        34.2        34.4        34.7        35.0
    17     1  2013   103    2       11.7        12.0        30.5        33.9        33.9        33.9        34.0        34.1        34.2        34.4        34.7        35.0
    18     1  2013   104    2       11.7        12.0        29.8        33.9        33.9        33.9        34.0        34.1        34.2        34.4        34.7        35.0
    19     1  2013   105    2       11.7        12.0        29.0        33.9        33.9        33.9        34.0        34.1        34.2        34.4        34.7        35.0
    20     1  2013   106    2       11.9        12.0        28.1        33.9        33.9        33.9        34.0        34.1        34.2        34.4        34.7        35.0
    21     1  2013   107    2       11.9        12.0        27.0        33.9        33.9        33.9        34.0        34.1        34.2        34.4        34.7        35.0
    22     1  2013   108    2       11.8        12.0        25.7        33.9        33.9        33.9        34.0        34.1        34.2        34.4        34.7        35.0
    23     1  2013   109    2       11.8        12.0        24.2        33.9        33.9        33.9        34.0        34.1        34.2        34.4        34.7        35.0
    24     1  2013   110    2       11.8        12.0        22.4        33.7        33.9        33.9        34.0        34.1        34.2        34.4        34.7        35.0
    25     1  2013   111    2       11.8        12.0        20.6        33.5        33.9        33.9        34.0        34.1        34.2        34.4        34.7        35.0
    26     1  2013   112    2       11.7        12.0        19.0        33.5        33.9        33.9        34.0        34.1        34.2        34.4        34.7        35.0
    27     1  2013   113    2       11.7        12.0        17.8        33.5        33.9        33.9        34.0        34.1        34.2        34.4        34.7        35.0
    28     1  2013   114    2       11.7        12.0        16.4        33.5        33.9        33.9        34.0        34.1        34.2        34.4        34.7        35.0
    29     1  2013   115    2       11.7        12.0        15.3        33.5        33.9        33.9        34.0        34.1        34.2        34.4        34.7        35.0
    30     1  2013   116    2       11.7        12.0        14.0        33.4        33.9        33.9        34.0        34.1        34.2        34.4        34.7        35.0
    31     1  2013   117    2       11.7        12.0        13.0        33.4        33.9        33.9        34.0        34.1        34.2        34.4        34.7        35.0
     1     2  2013   118    2       11.7        12.0        12.4        33.1        33.9        33.9        34.0        34.1        34.2        34.4        34.7        35.0
     2     2  2013   119    2       11.7        12.0        12.1        32.6        33.9        33.9        34.0        34.1        34.2        34.4        34.7        35.0
     3     2  2013   120    2       13.6        12.0        12.1        32.6        33.9        33.9        34.0        34.1        34.2        34.4        34.7        35.0
     4     2  2013   121    2       14.0        12.0        12.1        32.6        33.9        33.9        34.0        34.1        34.2        34.4        34.7        35.0
     5     2  2013   122    2       13.0        12.0        12.1        32.6        33.9        33.9        34.0        34.1        34.2        34.4        34.7        35.0
     6     2  2013   123    2       12.3        12.0        12.0        32.5        33.9        33.9        34.0        34.1        34.2        34.4        34.7        35.0
     7     2  2013   124    2       12.1        12.0        12.0        31.9        33.9        33.9        34.0        34.1        34.2        34.4        34.7        35.0
     8     2  2013   125    2       16.6        12.0        12.0        31.9        33.9        33.9        34.0        34.1        34.2        34.4        34.7        35.0
     9     2  2013   126    2       15.7        12.0        12.0        31.9        33.9        33.9        34.0        34.1        34.2        34.4        34.7        35.0
    10     2  2013   127    2       14.6        12.0        12.0        31.9        33.9        33.9        34.0        34.1        34.2        34.4        34.7        35.0
    11     2  2013   128    2       15.0        12.0        12.0        31.9        33.9        33.9        34.0        34.1        34.2        34.4        34.7        35.0
    12     2  2013   129    2       13.8        12.0        12.0        31.9        33.9        33.9        34.0        34.1        34.2        34.4        34.7        35.0
    13     2  2013   130    2       12.8        12.0        12.0        31.9        33.9        33.9        34.0        34.1        34.2        34.4        34.7        35.0
    14     2  2013   131    2       12.2        12.0        12.0        30.9        33.9        33.9        34.0        34.1        34.2        34.4        34.7        35.0
    15     2  2013   132    2       12.1        12.0        12.0        29.5        33.9        33.9        34.0        34.1        34.2        34.4        34.7        35.0
    16     2  2013   133    2       12.0        12.0        12.0        28.5        33.9        33.9        34.0        34.1        34.2        34.4        34.7        35.0
    17     2  2013   134    2       12.0        12.0        12.0        27.2        33.9        33.9        34.0        34.1        34.2        34.4        34.7        35.0
    18     2  2013   135    2       18.4        12.0        12.0        27.2        33.9        33.9        34.0        34.1        34.2        34.4        34.7        35.0
    19     2  2013   136    2       17.9        12.0        12.0        27.2        33.9        33.9        34.0        34.1        34.2        34.4        34.7        35.0
    20     2  2013   137    2       16.9        12.0        12.0        27.2        33.9        33.9        34.0        34.1        34.2        34.4        34.7        35.0
    21     2  2013   138    2       15.6        12.0        12.0        27.2        33.9        33.9        34.0        34.1        34.2        34.4        34.7        35.0
    22     2  2013   139    2       14.0        12.0        12.0        27.0        33.9        33.9        34.0        34.1        34.2        34.4        34.7        35.0
    23     2  2013   140    2       12.9        12.0        12.0        26.5        33.9        33.9        34.0        34.1        34.2        34.4        34.7        35.0
    24     2  2013   141    2       12.3        12.0        12.0        25.4        33.9        33.9        34.0        34.1        34.2        34.4        34.7        35.0
    25     2  2013   142    2       12.1        12.0        12.0        24.5        33.9        33.9        34.0        34.1        34.2        34.4        34.7        35.0
    26     2  2013   143    2       12.0        12.0        12.0        22.9        33.9        33.9        34.0        34.1        34.2        34.4        34.7        35.0
    27     2  2013   144    2       12.0        12.0        12.0        21.2        33.7        33.9        34.0        34.1        34.2        34.4        34.7        35.0
    28     2  2013   145    2       12.0        12.0        12.0        19.5        32.9        33.9        34.0        34.1        34.2        34.4        34.7        35.0
     1     3  2013   146    2       11.9        12.0        12.0        17.9        32.0        33.9        34.0        34.1        34.2        34.4        34.7        35.0
     2     3  2013   147    2       11.9        12.0        12.0        16.4        31.7        33.9        34.0        34.1        34.2        34.4        34.7        35.0
     3     3  2013   148    2       11.9        12.0        12.0        15.1        30.5        33.9        34.0        34.1        34.2        34.4        34.7        35.0
     4     3  2013   149    2       11.8        12.0        12.0        14.0        29.2        33.9        34.0        34.1        34.2        34.4        34.7        35.0
     5     3  2013   150    2       11.8        12.0        12.0        13.2        27.7        33.8        34.0        34.1        34.2        34.4        34.7        35.0
     6     3  2013   151    2       11.8        12.0        12.0        12.7        26.2        32.5        33.3        34.1        34.2        34.4        34.7        35.0
     7     3  2013   152    2       11.8        12.0        12.0        12.4        24.7        31.1        32.9        34.1        34.2        34.4        34.7        35.0
     8     3  2013   153    2       11.8        12.0        12.0        12.2        23.2        29.8        32.1        34.1        34.2        34.4        34.7        35.0
     9     3  2013   154    2       11.8        12.0        12.0        12.1        21.7        28.5        31.2        34.1        34.2        34.4        34.7        35.0
    10     3  2013   155    2       11.8        12.0        12.0        12.0        20.2        27.1        30.2        34.1        34.2        34.4        34.7        35.0
    11     3  2013   156    2       11.8        12.0        12.0        12.0        18.7        26.7        30.2        34.1        34.2        34.4        34.7        35.0
    12     3  2013   157    2       11.8        12.0        12.0        12.0        17.3        26.3        30.2        34.1        34.2        34.4        34.7        35.0
    13     3  2013   158    2       11.8        12.0        12.0        12.0        16.0        25.3        30.2        34.1        34.2        34.4        34.7        35.0
    14     3  2013   159    2       11.8        12.0        12.0        12.0        14.8        24.5        30.2        34.1        34.2        34.4        34.7        35.0
    15     3  2013   160    2       11.8        12.0        12.0        12.0        13.9        23.4        30.2        34.1        34.2        34.4        34.7        35.0
    16     3  2013   161    2       11.8        12.0        12.0        12.0        13.1        22.6        30.2        34.1        34.2        34.4        34.7        35.0
    17     3  2013   162    2       11.8        12.0        12.0        12.0        12.7        21.3        29.0        34.0        34.2        34.4        34.7        35.0
    18     3  2013   163    2       11.8        12.0        12.0        12.0        12.4        20.0        27.8        34.0        34.2        34.4        34.7        35.0
    19     3  2013   164    2       11.8        12.0        12.0        12.0        12.2        18.7        26.7        33.4        34.2        34.4        34.7        35.0
    20     3  2013   165    2       11.8        12.0        12.0        12.0        12.1        17.5        25.5        32.4        33.6        34.4        34.7        35.0
    21     3  2013   166    2       11.9        12.0        12.0        12.0        12.1        16.3        24.7        32.4        33.6        34.4        34.7        35.0
    22     3  2013   167    2       11.9        12.0        12.0        12.0        12.0        15.3        23.6        31.6        33.6        34.4        34.7        35.0
    23     3  2013   168    2       11.8        12.0        12.0        12.0        12.0        14.4        22.4        30.9        33.6        34.4        34.7        35.0
    24     3  2013   169    2       11.8        12.0        12.0        12.0        12.0        13.7        21.2        29.9        33.1        34.4        34.7        35.0
    25     3  2013   170    2       11.9        12.0        12.0        12.0        12.0        13.1        20.1        29.9        33.1        34.4        34.7        35.0
    26     3  2013   171    2       13.7        12.0        12.0        12.0        12.0        12.7        19.4        29.9        33.1        34.4        34.7        35.0
    27     3  2013   172    2       12.8        12.0        12.0        12.0        12.0        12.4        18.3        28.9        33.1        34.4        34.7        35.0
    28     3  2013   173    2       12.3        12.0        12.0        12.0        12.0        12.3        17.2        27.9        32.2        34.4        34.7        35.0
    29     3  2013   174    2       12.1        12.0        12.0        12.0        12.0        12.2        16.3        26.9        31.8        34.4        34.7        35.0
    30     3  2013   175    2       12.0        12.0        12.0        12.0        12.0        12.1        15.4        25.9        31.0        34.2        34.7        35.0
    31     3  2013   176    2       12.0        12.0        12.0        12.0        12.0        12.0        14.6        24.9        30.8        34.2        34.7        35.0
     1     4  2013   177    2       11.9        12.0        12.0        12.0        12.0        12.0        13.9        23.9        29.9        33.8        34.7        35.0
     2     4  2013   178    2       11.9        12.0        12.0        12.0        12.0        12.0        13.4        22.9        29.4        33.8        34.7        35.0
     3     4  2013   179    3       11.9        12.0        12.0        12.0        12.0        12.0        12.9        21.9        28.6        33.7        34.7        35.0
     4     4  2013   180    3       12.7        12.0        12.0        12.0        12.0        12.0        12.6        21.8        28.6        33.7        34.7        35.0
     5     4  2013   181    3       13.5        12.0        12.0        12.0        12.0        12.0        12.4        21.2        28.6        33.7        34.7        35.0
     6     4  2013   182    3       12.6        12.0        12.0        12.0        12.0        12.0        12.3        20.3        28.2        33.7        34.7        35.0
     7     4  2013   183    3       12.2        12.0        12.0        12.0        12.0        12.0        12.2        19.3        27.4        33.4        34.7        35.0
     8     4  2013   184    3       12.1        12.0        12.0        12.0        12.0        12.0        12.1        18.4        26.6        33.2        34.7        35.0
     9     4  2013   185    3       12.0        12.0        12.0        12.0        12.0        12.0        12.1        17.5        25.7        32.6        34.7        35.0
    10     4  2013   186    3       12.0        12.0        12.0        12.0        12.0        12.0        12.0        16.6        24.9        32.1        34.7        35.0
    11     4  2013   187    3       11.9        12.0        12.0        12.0        12.0        12.0        12.0        15.8        24.1        31.4        34.5        35.0
    12     4  2013   188    3       11.9        12.0        12.0        12.0        12.0        12.0        12.0        15.1        23.2        30.8        34.3        35.0
    13     4  2013   189    3       11.8        12.0        12.0        12.0        12.0        12.0        12.0        14.5        22.4        30.1        34.2        35.0
    14     4  2013   190    3       11.7        12.0        12.0        12.0        12.0        12.0        12.0        14.0        21.6        29.4        34.1        34.7
    15     4  2013   191    3       11.7        12.0        12.0        12.0        12.0        12.0        12.0        13.6        20.8        28.8        33.6        34.9
    16     4  2013   192    3       11.6        12.0        12.0        12.0        12.0        12.0        12.0        13.2        20.0        28.1        33.8        34.7
    17     4  2013   193    4       11.6        12.0        12.0        12.0        12.0        12.0        12.0        12.9        19.2        27.4        33.3        35.0
    18     4  2013   194    4       11.5        12.0        12.0        12.0        12.0        12.0        12.0        12.7        18.4        26.8        33.7        35.0
    19     4  2013   195    4       42.6        44.4        16.6        12.0        12.0        12.0        12.0        12.7        18.4        26.8        34.3        35.0
    20     4  2013   196    4       36.1        38.2        27.9        12.0        12.0        12.0        12.0        12.7        18.4        26.8        34.6        35.0
    21     4  2013   197    4       33.1        35.7        31.6        12.0        12.0        12.0        12.0        12.7        18.4        26.8        34.7        35.0
    22     4  2013   198    4       33.6        34.7        32.7        12.0        12.0        12.0        12.0        12.7        18.4        26.8        34.7        35.0
    23     4  2013   199    4       31.4        33.6        33.1        12.0        12.0        12.0        12.0        12.7        18.4        26.8        34.7        35.0
    24     4  2013   200    4       29.2        32.1        33.1        12.0        12.0        12.0        12.0        12.7        18.4        26.8        34.7        35.0
    25     4  2013   201    4       26.9        30.1        33.1        12.0        12.0        12.0        12.0        12.7        18.4        26.8        34.7        35.0
    26     4  2013   202    4       24.7        28.2        33.1        12.0        12.0        12.0        12.0        12.7        18.4        26.8        34.7        35.0
    27     4  2013   203    4       22.5        26.2        33.1        12.0        12.0        12.0        12.0        12.7        18.4        26.8        34.7        35.0
    28     4  2013   204    4       20.3        25.6        33.1        12.0        12.0        12.0        12.0        12.7        18.4        26.8        34.7        35.0
    29     4  2013   205    4       24.0        25.6        33.1        12.0        12.0        12.0        12.0        12.7        18.4        26.8        34.7        35.0
    30     4  2013   206    4       21.2        25.3        33.1        12.0        12.0        12.0        12.0        12.7        18.4        26.8        34.7        35.0
     1     5  2013   207    4       17.4        25.3        33.1        12.0        12.0        12.0        12.0        12.7        18.4        26.8        34.7        35.0
     2     5  2013   208   -9       15.9        25.3        33.1        12.0        12.0        12.0        12.0        12.7        18.4        26.8        34.7        35.0
     3     5  2013    -9    0       15.6        25.3        33.1        12.0        12.0        12.0        12.0        12.7        18.4        26.8        34.7        35.0
     4     5  2013    -9    0       15.3        25.3        33.1        12.0        12.0        12.0        12.0        12.7        18.4        26.8        34.7        35.0
     5     5  2013    -9    0       17.0        25.3        33.1        12.0        12.0        12.0        12.0        12.7        18.4        26.8        34.7        35.0
     6     5  2013    -9    0       20.8        25.3        33.1        12.0        12.0        12.0        12.0        12.7        18.4        26.8        34.7        35.0
     7     5  2013    -9    0       43.6        44.4        44.4        26.4        12.0        12.0        12.0        12.7        18.4        26.8        34.7        35.0
     8     5  2013    -9    0       37.1        38.2        38.2        38.1        18.5        12.0        12.0        12.7        18.4        26.8        34.7        35.0
     9     5  2013    -9    0       34.2        35.7        35.7        35.7        27.7        12.0        12.0        12.7        18.4        26.8        34.7        35.0
    10     5  2013    -9    0       32.9        34.7        34.7        34.7        31.0        12.0        12.0        12.7        18.4        26.8        34.7        35.0
    11     5  2013    -9    0       31.6        34.3        34.3        34.2        32.3        12.0        12.0        12.7        18.4        26.8        34.7        35.0
    12     5  2013    -9    0       30.5        34.1        34.1        34.1        32.9        12.0        12.0        12.7        18.4        26.8        34.7        35.0
    13     5  2013    -9    0       29.7        34.0        34.0        34.0        33.2        12.0        12.0        12.7        18.4        26.8        34.7        35.0
    14     5  2013    -9    0       29.2        33.9        33.9        33.9        33.3        12.0        12.0        12.7        18.4        26.8        34.7        35.0
    15     5  2013    -9    0       29.9        33.9        33.9        33.9        33.3        12.0        12.0        12.7        18.4        26.8        34.7        35.0
    16     5  2013    -9    0       34.9        33.9        33.9        33.9        33.3        12.0        12.0        12.7        18.4        26.8        34.7        35.0
    17     5  2013    -9    0       43.6        44.4        35.1        34.0        33.5        12.0        12.0        12.7        18.4        26.8        34.7        35.0
    18     5  2013    -9    0       35.9        38.2        38.0        36.1        35.7        17.6        12.0        12.7        18.4        26.8        34.7        35.0
    19     5  2013    -9    0       33.3        35.7        35.7        35.4        35.2        24.7        12.0        12.7        18.4        26.8        34.7        35.0
    20     5  2013    -9    0       31.8        34.7        34.7        34.6        34.5        28.3        12.0        12.7        18.4        26.8        34.7        35.0
    21     5  2013    -9    0       30.6        34.3        34.2        34.2        34.1        29.9        12.0        12.7        18.4        26.8        34.7        35.0
    22     5  2013    -9    0       29.4        34.1        34.0        34.0        34.0        30.6        12.0        12.7        18.4        26.8        34.7        35.0
    23     5  2013    -9    0       28.5        34.0        34.0        34.0        33.9        30.9        12.0        12.7        18.4        26.8        34.7        35.0
    24     5  2013    -9    0       40.6        33.9        33.9        33.9        33.9        31.0        12.0        12.7        18.4        26.8        34.7        35.0
    25     5  2013    -9    0       43.5        44.4        44.4        44.4        44.4        44.4        36.1        12.7        18.4        26.8        34.7        35.0
    26     5  2013    -9    0       43.0        44.4        44.4        44.4        44.4        44.4        44.4        37.4        28.8        26.8        34.7        35.0
    27     5  2013    -9    0       35.4        38.2        38.2        38.2        38.2        38.2        38.2        38.1        37.6        36.6        35.6        35.4
    28     5  2013    -9    0       39.8        35.7        35.7        35.7        35.7        35.7        35.7        35.7        35.6        35.6        35.5        35.4
    29     5  2013    -9    0       43.0        40.9        35.1        34.9        34.8        34.8        34.7        34.7        34.7        34.7        34.7        35.0
    30     5  2013    -9    0       36.5        37.7        37.0        35.6        35.0        34.8        34.6        34.5        34.5        34.4        34.7        35.0
    31     5  2013    -9    0       33.8        35.5        35.3        35.2        35.0        34.8        34.6        34.5        34.5        34.4        34.7        35.0
     1     6  2013    -9    0       31.4        34.6        34.5        34.5        34.4        34.4        34.3        34.3        34.3        34.4        34.7        35.0
     2     6  2013    -9    0       28.7        34.2        34.2        34.2        34.1        34.1        34.1        34.1        34.2        34.4        34.7        35.0
     3     6  2013    -9    0       26.6        34.0        34.0        34.0        34.0        34.0        34.0        34.1        34.2        34.4        34.7        35.0
     4     6  2013    -9    0       22.2        34.0        34.0        33.9        33.9        33.9        34.0        34.1        34.2        34.4        34.7        35.0
     5     6  2013    -9    0       18.9        33.9        33.9        33.9        33.9        33.9        34.0        34.1        34.2        34.4        34.7        35.0
     6     6  2013    -9    0       16.7        33.9        33.9        33.9        33.9        33.9        34.0        34.1        34.2        34.4        34.7        35.0
     7     6  2013    -9    0       14.7        33.9        33.9        33.9        33.9        33.9        34.0        34.1        34.2        34.4        34.7        35.0
     8     6  2013    -9    0       13.5        33.9        33.9        33.9        33.9        33.9        34.0        34.1        34.2        34.4        34.7        35.0
     9     6  2013    -9    0       22.4        33.9        33.9        33.9        33.9        33.9        34.0        34.1        34.2        34.4        34.7        35.0
    10     6  2013    -9    0       19.0        33.9        33.9        33.9        33.9        33.9        34.0        34.1        34.2        34.4        34.7        35.0
    11     6  2013    -9    0       16.5        33.9        33.9        33.9        33.9        33.9        34.0        34.1        34.2        34.4        34.7        35.0
    12     6  2013    -9    0       14.6        33.9        33.9        33.9        33.9        33.9        34.0        34.1        34.2        34.4        34.7        35.0
    13     6  2013    -9    0       12.8        33.9        33.9        33.9        33.9        33.9        34.0        34.1        34.2        34.4        34.7        35.0
    14     6  2013    -9    0       11.8        33.9        33.9        33.9        33.9        33.9        34.0        34.1        34.2        34.4        34.7        35.0
    15     6  2013    -9    0       10.6        33.9        33.9        33.9        33.9        33.9        34.0        34.1        34.2        34.4        34.7        35.0
    16     6  2013    -9    0        9.9        33.9        33.9        33.9        33.9        33.9        34.0        34.1        34.2        34.4        34.7        35.0
    17     6  2013    -9    0        9.0        33.9        33.9        33.9        33.9        33.9        34.0        34.1        34.2        34.4        34.7        35.0
    18     6  2013    -9    0        8.2        33.9        33.9        33.9        33.9        33.9        34.0        34.1        34.2        34.4        34.7        35.0
    19     6  2013    -9    0        7.7        33.9        33.9        33.9        33.9        33.9        34.0        34.1        34.2        34.4        34.7        35.0
    20     6  2013    -9    0        7.2        33.9        33.9        33.9        33.9        33.9        34.0        34.1        34.2        34.4        34.7        35.0
