AquaCrop 4.0 (June 2012) - Output created on (date) : 11/13/2015   at (time) : 4:33:04 PM
Crop development and production

   Day Month  Year   DAP Stage    GD       Z     StExp  StSto  StSen StSalt   CC    Kc(Tr)     Trx      Tr   Tr/Trx   WP    StBio  Biomass    HI  YieldPart  Brelative   WPet
                                °C-day     m       %      %      %      %      %      -        mm       mm     %     g/m2     %    ton/ha      %    ton/ha        %      kg/m3
     1     9  2012    -9    0    18.6    0.00     -9     -9     -9    100     0.0    0.00      0.0      0.0   100     0.0     0     0.000    -9.9    0.000      -9      0.00
     2     9  2012    -9    0    21.5    0.00     -9     -9     -9      0     0.0    0.00      0.0      0.0   100     0.0     0     0.000    -9.9    0.000      -9      0.00
     3     9  2012    -9    0    21.6    0.00     -9     -9     -9      0     0.0    0.00      0.0      0.0   100     0.0     0     0.000    -9.9    0.000      -9      0.00
     4     9  2012    -9    0    20.9    0.00     -9     -9     -9      0     0.0    0.00      0.0      0.0   100     0.0     0     0.000    -9.9    0.000      -9      0.00
     5     9  2012    -9    0    22.9    0.00     -9     -9     -9      0     0.0    0.00      0.0      0.0   100     0.0     0     0.000    -9.9    0.000      -9      0.00
     6     9  2012    -9    0    23.1    0.00     -9     -9     -9      0     0.0    0.00      0.0      0.0   100     0.0     0     0.000    -9.9    0.000      -9      0.00
     7     9  2012    -9    0    21.4    0.00     -9     -9     -9      0     0.0    0.00      0.0      0.0   100     0.0     0     0.000    -9.9    0.000      -9      0.00
     8     9  2012    -9    0    19.6    0.00     -9     -9     -9      0     0.0    0.00      0.0      0.0   100     0.0     0     0.000    -9.9    0.000      -9      0.00
     9     9  2012    -9    0    22.2    0.00     -9     -9     -9      0     0.0    0.00      0.0      0.0   100     0.0     0     0.000    -9.9    0.000      -9      0.00
    10     9  2012    -9    0    19.5    0.00     -9     -9     -9      0     0.0    0.00      0.0      0.0   100     0.0     0     0.000    -9.9    0.000      -9      0.00
    11     9  2012    -9    0    22.4    0.00     -9     -9     -9      0     0.0    0.00      0.0      0.0   100     0.0     0     0.000    -9.9    0.000      -9      0.00
    12     9  2012    -9    0    21.0    0.00     -9     -9     -9      0     0.0    0.00      0.0      0.0   100     0.0     0     0.000    -9.9    0.000      -9      0.00
    13     9  2012    -9    0    18.3    0.00     -9     -9     -9      0     0.0    0.00      0.0      0.0   100     0.0     0     0.000    -9.9    0.000      -9      0.00
    14     9  2012    -9    0    17.1    0.00     -9     -9     -9      0     0.0    0.00      0.0      0.0   100     0.0     0     0.000    -9.9    0.000      -9      0.00
    15     9  2012    -9    0    17.6    0.00     -9     -9     -9      0     0.0    0.00      0.0      0.0   100     0.0     0     0.000    -9.9    0.000      -9      0.00
    16     9  2012    -9    0    17.4    0.00     -9     -9     -9      0     0.0    0.00      0.0      0.0   100     0.0     0     0.000    -9.9    0.000      -9      0.00
    17     9  2012    -9    0    19.0    0.00     -9     -9     -9      0     0.0    0.00      0.0      0.0   100     0.0     0     0.000    -9.9    0.000      -9      0.00
    18     9  2012    -9    0    20.4    0.00     -9     -9     -9      0     0.0    0.00      0.0      0.0   100     0.0     0     0.000    -9.9    0.000      -9      0.00
    19     9  2012    -9    0    20.7    0.00     -9     -9     -9      0     0.0    0.00      0.0      0.0   100     0.0     0     0.000    -9.9    0.000      -9      0.00
    20     9  2012    -9    0    17.4    0.00     -9     -9     -9      0     0.0    0.00      0.0      0.0   100     0.0     0     0.000    -9.9    0.000      -9      0.00
    21     9  2012    -9    0    21.0    0.00     -9     -9     -9      0     0.0    0.00      0.0      0.0   100     0.0     0     0.000    -9.9    0.000      -9      0.00
    22     9  2012    -9    0    19.4    0.00     -9     -9     -9      0     0.0    0.00      0.0      0.0   100     0.0     0     0.000    -9.9    0.000      -9      0.00
    23     9  2012    -9    0    21.0    0.00     -9     -9     -9      0     0.0    0.00      0.0      0.0   100     0.0     0     0.000    -9.9    0.000      -9      0.00
    24     9  2012    -9    0    20.9    0.00     -9     -9     -9      0     0.0    0.00      0.0      0.0   100     0.0     0     0.000    -9.9    0.000      -9      0.00
    25     9  2012    -9    0    18.9    0.00     -9     -9     -9      0     0.0    0.00      0.0      0.0   100     0.0     0     0.000    -9.9    0.000      -9      0.00
    26     9  2012    -9    0    19.3    0.00     -9     -9     -9      0     0.0    0.00      0.0      0.0   100     0.0     0     0.000    -9.9    0.000      -9      0.00
    27     9  2012    -9    0    20.0    0.00     -9     -9     -9      0     0.0    0.00      0.0      0.0   100     0.0     0     0.000    -9.9    0.000      -9      0.00
    28     9  2012    -9    0    15.5    0.00     -9     -9     -9      0     0.0    0.00      0.0      0.0   100     0.0     0     0.000    -9.9    0.000      -9      0.00
    29     9  2012    -9    0    15.2    0.00     -9     -9     -9      0     0.0    0.00      0.0      0.0   100     0.0     0     0.000    -9.9    0.000      -9      0.00
    30     9  2012    -9    0    17.1    0.00     -9     -9     -9      0     0.0    0.00      0.0      0.0   100     0.0     0     0.000    -9.9    0.000      -9      0.00
     1    10  2012    -9    0    16.8    0.00     -9     -9     -9      0     0.0    0.00      0.0      0.0   100     0.0     0     0.000    -9.9    0.000      -9      0.00
     2    10  2012    -9    0    16.0    0.00     -9     -9     -9      0     0.0    0.00      0.0      0.0   100     0.0     0     0.000    -9.9    0.000      -9      0.00
     3    10  2012    -9    0    19.3    0.00     -9     -9     -9      0     0.0    0.00      0.0      0.0   100     0.0     0     0.000    -9.9    0.000      -9      0.00
     4    10  2012    -9    0    17.5    0.00     -9     -9     -9      0     0.0    0.00      0.0      0.0   100     0.0     0     0.000    -9.9    0.000      -9      0.00
     5    10  2012    -9    0    18.8    0.00     -9     -9     -9      0     0.0    0.00      0.0      0.0   100     0.0     0     0.000    -9.9    0.000      -9      0.00
     6    10  2012    -9    0    15.8    0.00     -9     -9     -9      0     0.0    0.00      0.0      0.0   100     0.0     0     0.000    -9.9    0.000      -9      0.00
     7    10  2012     1    1    16.1    0.30     -9     -9     -9      0     0.0    0.00      0.0      0.0   100    19.1     0     0.000    -9.9    0.000      -9      0.00
     8    10  2012     2    1    15.3    0.30     -9     -9     -9      0     0.0    0.00      0.0      0.0   100    19.1     0     0.000    -9.9    0.000      -9      0.00
     9    10  2012     3    1    18.0    0.30     -9     -9     -9      0     0.0    0.00      0.0      0.0   100    19.1     0     0.000    -9.9    0.000      -9      0.00
    10    10  2012     4    1    15.4    0.34     -9     -9     -9      0     0.0    0.00      0.0      0.0   100    19.1     0     0.000    -9.9    0.000      -9      0.00
    11    10  2012     5    1    15.8    0.38     -9      0      0      0     1.2    0.02      0.0      0.0   100    19.1     0     0.004    -9.9    0.000     100      0.00
    12    10  2012     6    2    17.3    0.43      0      0      0      0     1.6    0.03      0.0      0.0   100    19.1     0     0.010    -9.9    0.000     100      0.00
    13    10  2012     7    2    18.0    0.47      0      0      0      0     2.1    0.04      0.1      0.1   100    19.1     0     0.017    -9.9    0.000     100      0.00
    14    10  2012     8    2    16.2    0.50      0      0      0      0     2.8    0.05      0.1      0.1   100    19.1     0     0.027    -9.9    0.000     100      0.00
    15    10  2012     9    2    14.9    0.53      0      0      0      0     3.6    0.07      0.1      0.1   100    19.1     0     0.040    -9.9    0.000     100      0.00
    16    10  2012    10    2    15.1    0.56      0      0      0      0     4.7    0.09      0.2      0.2   100    19.1     0     0.057    -9.9    0.000     100      0.00
    17    10  2012    11    2    11.3    0.58      0      0      0      0     5.7    0.10      0.2      0.2   100    19.1     0     0.076    -9.9    0.000     100      0.00
    18    10  2012    12    2     9.4    0.59      0      0      0      0     6.7    0.12      0.2      0.2   100    19.1     6     0.098    -9.9    0.000     100      0.00
    19    10  2012    13    2    13.9    0.62      0      0      0      0     8.5    0.15      0.2      0.2   100    19.1     0     0.127    -9.9    0.000     100      0.00
    20    10  2012    14    2    14.4    0.64      0      0      0      0    10.8    0.19      0.3      0.3   100    19.1     0     0.163    -9.9    0.000     100      0.00
    21    10  2012    15    2    14.6    0.66      0      0      0      0    13.8    0.24      0.4      0.4   100    19.1     0     0.209    -9.9    0.000     100      0.00
    22    10  2012    16    2    12.6    0.68      0      0      0      0    17.2    0.29      0.6      0.6   100    19.1     0     0.265    -9.9    0.000     100      0.00
    23    10  2012    17    2     7.1    0.69      0      0      0      0    19.4    0.33      0.3      0.3   100    19.1    25     0.312    -9.9    0.000     100      0.00
    24    10  2012    18    2    13.6    0.71      0      0      0      0    24.4    0.40      0.8      0.8   100    19.1     0     0.388    -9.9    0.000     100      0.00
    25    10  2012    19    2    11.3    0.73      0      0      0      0    29.5    0.47      0.7      0.7   100    19.1     0     0.477    -9.9    0.000     100      0.00
    26    10  2012    20    2    17.7    0.76      0      0      0      0    39.9    0.60      1.3      1.3   100    19.1     0     0.591    -9.9    0.000     100      0.00
    27    10  2012    21    2    12.8    0.78      0      0      0      0    49.6    0.70      0.8      0.8   100    19.1     0     0.726    -9.9    0.000     100      0.00
    28    10  2012    22    2    11.6    0.79      0      0      0      0    57.7    0.78      0.9      0.9   100    19.1     0     0.876    -9.9    0.000     100      0.00
    29    10  2012    23    2    15.9    0.81      0      0      0      0    66.5    0.86      1.1      1.1   100    19.1     0     1.041    -9.9    0.000     100      0.00
    30    10  2012    24    2    11.6    0.83      0      0      0      0    71.6    0.91      1.5      1.5   100    19.1     0     1.214    -9.9    0.000     100      0.00
    31    10  2012    25    2    10.9    0.84      0      0      0      0    75.6    0.94      1.8      1.8   100    19.1     2     1.389    -9.9    0.000     100      0.00
     1    11  2012    26    2     9.2    0.86      0      0      0      0    78.4    0.96      1.2      1.2   100    19.1     7     1.559    -9.9    0.000     100      0.00
     2    11  2012    27    2    10.8    0.87      0      0      0      0    81.2    0.98      1.7      1.7   100    19.1     2     1.742    -9.9    0.000     100      0.00
     3    11  2012    28    2    10.9    0.89      0      0      0      0    83.5    1.00      3.2      3.2   100    19.1     2     1.929    -9.9    0.000     100      0.00
     4    11  2012    29    2     5.4    0.89      0      0      0      0    84.5    1.01      1.3      1.3   100    19.1    53     2.020    -9.9    0.000     100      0.00
     5    11  2012    30    2     5.4    0.90      0      0      0      0    85.4    1.01      1.3      1.3   100    19.1    54     2.110    -9.9    0.000     100      0.00
     6    11  2012    31    2     6.0    0.91      0      0      0      0    86.4    1.02      1.2      1.2   100    19.1    42     2.222    -9.9    0.000     100      0.00
     7    11  2012    32    2     8.7    0.92      0      0      0      0    87.5    1.03      1.1      1.1   100    19.1    10     2.399    -9.9    0.000     100      0.00
     8    11  2012    33    2     7.8    0.93      0      0      0      0    88.5    1.03      1.3      1.3   100    19.1    17     2.564    -9.9    0.000     100      0.00
     9    11  2012    34    2     7.9    0.94      0      0      0      0    89.3    1.04      1.0      1.0   100    19.1    17     2.730    -9.9    0.000     100      0.00
    10    11  2012    35    2     7.5    0.95      0      0      0      0    90.0    1.04      1.5      1.5   100    19.1    20     2.891    -9.9    0.000     100      0.00
    11    11  2012    36    2     5.0    0.95      0      0      0      0    90.4    1.05      1.5      1.5   100    19.1    60     2.971    -9.9    0.000     100      0.00
    12    11  2012    37    2     8.7    0.96      0      0      0      0    91.0    1.05      1.5      1.5   100    19.1    10     3.153    -9.9    0.000     100      0.00
    13    11  2012    38    2     7.3    0.97      0      0      0      0    91.5    1.06      1.7      1.7   100    19.1    23     3.309    -9.9    0.000     100      0.00
    14    11  2012    39    2     5.8    0.98      0      0      0      0    91.8    1.06      1.0      1.0   100    19.1    46     3.419    -9.9    0.000     100      0.00
    15    11  2012    40    2     6.8    0.99      0      0      0      0    92.2    1.06      1.2      1.2   100    19.1    29     3.564    -9.9    0.000     100      0.00
    16    11  2012    41    2     8.8    1.00      0      0      0      0    92.6    1.06      1.5      1.5   100    19.1    10     3.748    -9.9    0.000     100      0.00
    17    11  2012    42    2     6.5    1.01      0      0      0      0    92.8    1.06      1.0      1.0   100    19.1    34     3.883    -9.9    0.000     100      0.00
    18    11  2012    43    2    10.1    1.02      0      0      0      0    93.2    1.07      1.9      1.9   100    19.1     4     4.078    -9.9    0.000     100      0.00
    19    11  2012    44    2     7.1    1.03     -9      0      0      0    93.2    1.07      1.4      1.4   100    19.1    26     4.230    -9.9    0.000     100      0.00
    20    11  2012    45    2     7.7    1.04     -9      0      0      0    93.4    1.07      1.0      1.0   100    19.1    18     4.398    -9.9    0.000     100      0.00
    21    11  2012    46    2     8.8    1.05     -9      0      0      0    93.6    1.07      1.1      1.1   100    19.1     9     4.584    -9.9    0.000     100      0.00
    22    11  2012    47    2     9.2    1.06     -9      0      0      0    93.8    1.07      2.1      2.1   100    19.1     7     4.774    -9.9    0.000     100      0.00
    23    11  2012    48    2     7.3    1.07     -9      0      0      0    94.0    1.07      1.5      1.5   100    19.1    23     4.932    -9.9    0.000     100      0.00
    24    11  2012    49    2     2.7    1.07     -9      0      0      0    94.0    1.07      1.1      1.1   100    19.1    89     4.953    -9.9    0.000     100      0.00
    25    11  2012    50    2     5.6    1.08     -9      0      0      0    94.1    1.07      1.6      1.6   100    19.1    50     5.056    -9.9    0.000     100      0.00
    26    11  2012    51    2     3.1    1.08     -9      0      0      0    94.2    1.07      1.1      1.1   100    19.1    85     5.086    -9.9    0.000     100      0.00
    27    11  2012    52    2     4.3    1.08     -9      0      0      0    94.2    1.07      1.4      1.4   100    19.1    71     5.144    -9.9    0.000     100      0.00
    28    11  2012    53    2     4.0    1.09     -9      0      0      0    94.3    1.07      1.6      1.6   100    19.1    76     5.193    -9.9    0.000     100      0.00
    29    11  2012    54    2     0.5    1.09     -9      0      0      0    94.3    1.07      0.6      0.6   100    19.1    99     5.195    -9.9    0.000     100      0.00
    30    11  2012    55    2     0.0    1.09     -9      0      0      0    94.3    1.07      0.7      0.7   100    19.1   100     5.195    -9.9    0.000     100      0.00
     1    12  2012    56    2     2.8    1.09     -9      0      0      0    94.3    1.07      0.9      0.9   100    19.1    89     5.218    -9.9    0.000     100      0.00
     2    12  2012    57    2     1.9    1.09     -9      0      0      0    94.3    1.07      0.7      0.7   100    19.1    95     5.229    -9.9    0.000     100      0.00
     3    12  2012    58    2     4.5    1.10     -9      0      0      0    94.4    1.06      1.4      1.4   100    19.1    68     5.294    -9.9    0.000     100      0.00
     4    12  2012    59    2     4.5    1.10     -9      0      0      0    94.4    1.06      1.3      1.3   100    19.1    69     5.357    -9.9    0.000     100      0.00
     5    12  2012    60    2     5.2    1.11     -9      0      0      0    94.5    1.06      1.2      1.2   100    19.1    56     5.446    -9.9    0.000     100      0.00
     6    12  2012    61    2     4.1    1.11     -9      0      0      0    94.5    1.06      1.6      1.6   100    19.1    74     5.498    -9.9    0.000     100      0.00
     7    12  2012    62    2     5.0    1.12     -9      0      0      0    94.5    1.06      0.8      0.8   100    19.1    60     5.579    -9.9    0.000     100      0.00
     8    12  2012    63    2     1.2    1.12     -9      0      0      0    94.6    1.06      1.6      1.6   100    19.1    97     5.585    -9.9    0.000     100      0.00
     9    12  2012    64    2     0.0    1.12     -9      0      0      0    94.6    1.06      0.7      0.7   100    19.1   100     5.585    -9.9    0.000     100      0.00
    10    12  2012    65    2     2.9    1.12     -9      0      0      0    94.6    1.06      0.8      0.8   100    19.1    88     5.609    -9.9    0.000     100      0.00
    11    12  2012    66    2     0.0    1.12     -9      0      0      0    94.6    1.05      0.6      0.6   100    19.1   100     5.609    -9.9    0.000     100      0.00
    12    12  2012    67    2     0.0    1.12     -9      0      0      0    94.6    1.05      0.6      0.6   100    19.1   100     5.609    -9.9    0.000     100      0.00
    13    12  2012    68    2     0.0    1.12     -9      0      0      0    94.6    1.05      0.6      0.6   100    19.1   100     5.609    -9.9    0.000     100      0.00
    14    12  2012    69    2     1.9    1.13     -9      0      0      0    94.6    1.05      0.6      0.6   100    19.1    94     5.621    -9.9    0.000     100      0.00
    15    12  2012    70    2     1.1    1.13     -9      0      0      0    94.6    1.05      0.5      0.5   100    19.1    98     5.625    -9.9    0.000     100      0.00
    16    12  2012    71    2     0.9    1.13     -9      0      0      0    94.6    1.05      0.5      0.5   100    19.1    98     5.629    -9.9    0.000     100      0.00
    17    12  2012    72    2     4.3    1.13     -9      0      0      0    94.6    1.05      1.0      1.0   100    19.1    72     5.685    -9.9    0.000     100      0.00
    18    12  2012    73    2     1.5    1.14     -9      0      0      0    94.6    1.05      0.8      0.8   100    19.1    96     5.692    -9.9    0.000     100      0.00
    19    12  2012    74    2     0.0    1.14     -9      0      0      0    94.6    1.04      0.6      0.6   100    19.1   100     5.692    -9.9    0.000     100      0.00
    20    12  2012    75    2     0.6    1.14     -9      0      0      0    94.6    1.04      0.5      0.5   100    19.1    99     5.694    -9.9    0.000     100      0.00
    21    12  2012    76    2     1.1    1.14     -9      0      0      0    94.7    1.04      0.9      0.9   100    19.1    97     5.699    -9.9    0.000     100      0.00
    22    12  2012    77    2     1.2    1.14     -9      0      0      0    94.7    1.04      1.1      1.1   100    19.1    97     5.705    -9.9    0.000     100      0.00
    23    12  2012    78    2     0.0    1.14     -9      0      0      0    94.7    1.03      1.0      1.0   100    19.1   100     5.705    -9.9    0.000     100      0.00
    24    12  2012    79    2     0.0    1.14     -9      0      0      0    94.7    1.03      0.7      0.7   100    19.1   100     5.705    -9.9    0.000     100      0.00
    25    12  2012    80    2     0.0    1.14     -9      0      0      0    94.7    1.03      0.6      0.6   100    19.1   100     5.705    -9.9    0.000     100      0.00
    26    12  2012    81    2     0.0    1.14     -9      0      0      0    94.7    1.03      0.7      0.7   100    19.1   100     5.705    -9.9    0.000     100      0.00
    27    12  2012    82    2     0.0    1.14     -9      0      0      0    94.7    1.03      0.5      0.5   100    19.1   100     5.705    -9.9    0.000     100      0.00
    28    12  2012    83    2     0.0    1.14     -9      0      0      0    94.7    1.03      0.8      0.8   100    19.1   100     5.705    -9.9    0.000     100      0.00
    29    12  2012    84    2     0.0    1.14     -9      0      0      0    94.7    1.03      1.5      1.5   100    19.1   100     5.705    -9.9    0.000     100      0.00
    30    12  2012    85    2     0.0    1.14     -9      0      0      0    94.7    1.03      1.2      1.2   100    19.1   100     5.705    -9.9    0.000     100      0.00
    31    12  2012    86    2     1.0    1.14     -9      0      0      0    94.7    1.03      1.1      1.1   100    19.1    98     5.709    -9.9    0.000     100      0.00
     1     1  2013    87    2     0.8    1.14     -9      0      0      0    94.7    1.02      1.4      1.4   100    19.1    98     5.712    -9.9    0.000     100      0.00
     2     1  2013    88    2     0.0    1.14     -9      0      0      0    94.7    1.02      0.8      0.8   100    19.1   100     5.712    -9.9    0.000     100      0.00
     3     1  2013    89    2     0.0    1.14     -9      0      0      0    94.7    1.02      1.1      1.1   100    19.1   100     5.712    -9.9    0.000     100      0.00
     4     1  2013    90    2     0.0    1.14     -9      0      0      0    94.7    1.02      0.6      0.6   100    19.1   100     5.712    -9.9    0.000     100      0.00
     5     1  2013    91    2     0.0    1.14     -9      0      0      0    94.7    1.02      0.9      0.9   100    19.1   100     5.712    -9.9    0.000     100      0.00
     6     1  2013    92    2     0.0    1.14     -9      0      0      0    94.7    1.02      0.5      0.5   100    19.1   100     5.712    -9.9    0.000     100      0.00
     7     1  2013    93    2     0.0    1.14     -9      0      0      0    94.7    1.02      0.6      0.6   100    19.1   100     5.712    -9.9    0.000     100      0.00
     8     1  2013    94    2     2.0    1.14     -9      0      0      0    94.7    1.02      1.3      1.3   100    19.1    94     5.724    -9.9    0.000     100      0.00
     9     1  2013    95    2     0.0    1.14     -9      0      0      0    94.7    1.01      0.7      0.7   100    19.1   100     5.724    -9.9    0.000     100      0.00
    10     1  2013    96    2     0.0    1.14     -9      0      0      0    94.7    1.01      0.9      0.9   100    19.1   100     5.724    -9.9    0.000     100      0.00
    11     1  2013    97    2     3.6    1.15     -9      0      0      0    94.7    1.01      1.5      1.5   100    19.1    81     5.761    -9.9    0.000     100      0.00
    12     1  2013    98    2     0.0    1.15     -9      0      0      0    94.7    1.01      0.7      0.7   100    19.1   100     5.761    -9.9    0.000     100      0.00
    13     1  2013    99    2     0.5    1.15     -9      0      0      0    94.7    1.01      0.7      0.7   100    19.1    99     5.763    -9.9    0.000     100      0.00
    14     1  2013   100    2     0.0    1.15     -9      0      0      0    94.7    1.01      1.0      1.0   100    19.1   100     5.763    -9.9    0.000     100      0.00
    15     1  2013   101    2     5.9    1.15     -9      0      0      0    94.7    1.01      1.5      1.5   100    19.1    44     5.871    -9.9    0.000     100      0.00
    16     1  2013   102    2     5.3    1.16     -9      0      0      0    94.8    1.00      1.5      1.5   100    19.1    55     5.957    -9.9    0.000     100      0.00
    17     1  2013   103    2     1.6    1.16     -9      0      0      0    94.8    1.00      1.1      1.1   100    19.1    96     5.965    -9.9    0.000     100      0.00
    18     1  2013   104    2     0.0    1.16     -9      0      0      0    94.8    1.00      0.7      0.7   100    19.1   100     5.965    -9.9    0.000     100      0.00
    19     1  2013   105    2     0.0    1.16     -9      0      0      0    94.8    1.00      0.8      0.8   100    19.1   100     5.965    -9.9    0.000     100      0.00
    20     1  2013   106    2     3.2    1.16     -9      0      0      0    94.8    1.00      0.9      0.9   100    19.1    85     5.993    -9.9    0.000     100      0.00
    21     1  2013   107    2     3.6    1.17     -9      0      0      0    94.8    1.00      1.1      1.1   100    19.1    81     6.030    -9.9    0.000     100      0.00
    22     1  2013   108    2     3.5    1.17     -9      0      0      0    94.8    1.00      1.3      1.3   100    19.1    82     6.065    -9.9    0.000     100      0.00
    23     1  2013   109    2     3.4    1.18     -9      0      0      0    94.8    1.00      1.5      1.5   100    19.1    83     6.097    -9.9    0.000     100      0.00
    24     1  2013   110    2     4.8    1.18     -9      0      0      0    94.8    1.00      2.0      2.0   100    19.1    63     6.166    -9.9    0.000     100      0.00
    25     1  2013   111    2     4.8    1.19     -9      0      0      0    94.8    0.99      2.1      2.1   100    19.1    63     6.236    -9.9    0.000     100      0.00
    26     1  2013   112    2     6.8    1.19     -9      0      0      0    94.9    0.99      1.6      1.6   100    19.1    29     6.370    -9.9    0.000     100      0.00
    27     1  2013   113    2     4.4    1.20     -9      0      0      0    94.9    0.99      1.2      1.2   100    19.1    70     6.428    -9.9    0.000     100      0.00
    28     1  2013   114    2     5.7    1.20     -9      0      0      0    94.9    0.99      1.4      1.4   100    19.1    48     6.525    -9.9    0.000     100      0.00
    29     1  2013   115    2     3.8    1.20     -9      0      0      0    94.9    0.99      1.1      1.1   100    19.1    79     6.565    -9.9    0.000     100      0.00
    30     1  2013   116    2     5.7    1.20     -9      0      0      0    94.9    0.99      1.4      1.4   100    19.1    48     6.663    -9.9    0.000     100      0.00
    31     1  2013   117    2     5.3    1.20     -9      0      0      0    94.9    0.98      1.0      1.0   100    19.1    55     6.747    -9.9    0.000     100      0.00
     1     2  2013   118    2     4.5    1.20     -9      0      0      0    94.9    0.98      0.9      0.9   100    19.1    67     6.808    -9.9    0.000     100      0.00
     2     2  2013   119    2     2.0    1.20     -9      0      0      0    94.9    0.98      0.8      0.8   100    19.1    94     6.820    -9.9    0.000     100      0.00
     3     2  2013   120    2     3.6    1.20     -9      0      0      0    94.9    0.98      0.7      0.7   100    19.1    81     6.856    -9.9    0.000     100      0.00
     4     2  2013   121    2     1.6    1.20     -9      0      0      0    94.9    0.98      0.6      0.6   100    19.1    96     6.864    -9.9    0.000     100      0.00
     5     2  2013   122    2     5.7    1.20     -9      0      0      0    94.9    0.98      1.2      1.2   100    19.1    47     6.962    -9.9    0.000     100      0.00
     6     2  2013   123    2     4.1    1.20     -9      0      0      0    94.9    0.98      0.9      0.9   100    19.1    74     7.010    -9.9    0.000     100      0.00
     7     2  2013   124    2     4.0    1.20     -9      0      0      0    94.9    0.97      0.9      0.9   100    19.1    76     7.056    -9.9    0.000     100      0.00
     8     2  2013   125    2     0.0    1.20     -9      0      0      0    94.9    0.97      0.6      0.6   100    19.1   100     7.056    -9.9    0.000     100      0.00
     9     2  2013   126    2     2.3    1.20     -9      0      0      0    94.9    0.97      0.9      0.9   100    19.1    92     7.070    -9.9    0.000     100      0.00
    10     2  2013   127    2     4.0    1.20     -9      0      0      0    94.9    0.97      1.1      1.1   100    19.1    76     7.115    -9.9    0.000     100      0.00
    11     2  2013   128    2     2.7    1.20     -9      0      0      0    94.9    0.97      0.7      0.7   100    19.1    89     7.135    -9.9    0.000     100      0.00
    12     2  2013   129    2     2.9    1.20     -9      0      0      0    94.9    0.97      1.2      1.2   100    19.1    88     7.158    -9.9    0.000     100      0.00
    13     2  2013   130    2     3.5    1.20     -9      0      0      0    95.0    0.97      1.1      1.1   100    19.1    81     7.192    -9.9    0.000     100      0.00
    14     2  2013   131    2     7.0    1.20     -9      0      0      0    95.0    0.97      1.5      1.5   100    19.1    26     7.328    -9.9    0.000     100      0.00
    15     2  2013   132    2     4.6    1.20     -9      0      0      0    95.0    0.97      1.5      1.5   100    19.1    67     7.388    -9.9    0.000     100      0.00
    16     2  2013   133    2     3.5    1.20     -9      0      0      0    95.0    0.96      1.1      1.1   100    19.1    82     7.422    -9.9    0.000     100      0.00
    17     2  2013   134    2     5.5    1.20     -9      0      0      0    95.0    0.96      1.3      1.3   100    19.1    51     7.512    -9.9    0.000     100      0.00
    18     2  2013   135    2     3.9    1.20     -9      0      0      0    95.0    0.96      1.0      1.0   100    19.1    78     7.553    -9.9    0.000     100      0.00
    19     2  2013   136    2     1.6    1.20     -9      0      0      0    95.0    0.96      0.8      0.8   100    19.1    96     7.561    -9.9    0.000     100      0.00
    20     2  2013   137    2     4.2    1.20     -9      0      0      0    95.0    0.96      1.1      1.1   100    19.1    73     7.610    -9.9    0.000     100      0.00
    21     2  2013   138    2     7.8    1.20     -9      0      0      0    95.0    0.96      1.2      1.2   100    19.1    17     7.762    -9.9    0.000     100      0.00
    22     2  2013   139    2     6.9    1.20     -9      0      0      0    95.0    0.96      1.8      1.8   100    19.1    28     7.894    -9.9    0.000     100      0.00
    23     2  2013   140    2     7.0    1.20     -9      0      0      0    95.0    0.95      1.6      1.6   100    19.1    26     8.028    -9.9    0.000     100      0.00
    24     2  2013   141    2     9.8    1.20     -9      0      0      0    95.0    0.95      1.7      1.7   100    19.1     5     8.201    -9.9    0.000     100      0.00
    25     2  2013   142    2     7.4    1.20     -9      0      0      0    95.0    0.95      1.0      1.0   100    19.1    21     8.345    -9.9    0.000     100      0.00
    26     2  2013   143    2     9.3    1.20     -9      0      0      0    95.0    0.95      1.7      1.7   100    19.1     7     8.514    -9.9    0.000     100      0.00
    27     2  2013   144    2    10.9    1.20     -9      0      0      0    95.0    0.95      1.9      1.9   100    19.1     2     8.692    -9.9    0.000     100      0.00
    28     2  2013   145    2    11.7    1.20     -9      0      0      0    95.0    0.95      2.5      2.5   100    19.1     0     8.873    -9.9    0.000     100      0.00
     1     3  2013   146    2     7.6    1.20     -9      0      0      0    95.0    0.94      2.5      2.5   100    19.1    19     9.019    -9.9    0.000     100      0.00
     2     3  2013   147    2     6.9    1.20     -9      0      0      0    95.0    0.94      1.8      1.8   100    19.1    28     9.149    -9.9    0.000     100      0.00
     3     3  2013   148    2    10.5    1.20     -9      0      0      0    95.0    0.94      2.5      2.5   100    19.1     3     9.324    -9.9    0.000     100      0.00
     4     3  2013   149    2    10.5    1.20     -9      0      0      0    95.0    0.94      2.4      2.4   100    19.1     3     9.499    -9.9    0.000     100      0.00
     5     3  2013   150    2    11.6    1.20     -9      0      0      0    95.0    0.94      2.4      2.4   100    19.1     0     9.678    -9.9    0.000     100      0.00
     6     3  2013   151    2    15.8    1.20     -9      0      0      0    95.0    0.94      4.0      4.0   100    19.1     0     9.858    -9.9    0.000     100      0.00
     7     3  2013   152    2    17.6    1.20     -9      0      0      0    95.0    0.94      3.5      3.5   100    19.1     0    10.037    -9.9    0.000     100      0.00
     8     3  2013   153    2    19.9    1.20     -9      0      0      0    95.0    0.94      3.8      3.8   100    19.1     0    10.216    -9.9    0.000     100      0.00
     9     3  2013   154    2    19.4    1.20     -9      0      0      0    95.0    0.93      3.8      3.8   100    19.1     0    10.395    -9.9    0.000     100      0.00
    10     3  2013   155    2    12.4    1.20     -9      0      0      0    95.0    0.93      3.9      3.9   100    19.1     0    10.573    -9.9    0.000     100      0.00
    11     3  2013   156    2     6.2    1.20     -9      0      0      0    95.0    0.93      2.0      2.0   100    19.1    39    10.682    -9.9    0.000     100      0.00
    12     3  2013   157    2    13.8    1.20     -9      0      0      0    95.0    0.93      1.8      1.8   100    19.1     0    10.860    -9.9    0.000     100      0.00
    13     3  2013   158    2    11.9    1.20     -9      0      0      0    95.0    0.93      2.3      2.3   100    19.1     0    11.038    -9.9    0.000     100      0.00
    14     3  2013   159    2     9.4    1.20     -9      0      0      0    95.0    0.93      1.9      1.9   100    19.1     6    11.204    -9.9    0.000     100      0.00
    15     3  2013   160    2     9.2    1.20     -9      0      0      0    95.0    0.92      2.0      2.0   100    19.1     7    11.369    -9.9    0.000     100      0.00
    16     3  2013   161    2    12.8    1.20     -9      0      0      0    95.0    0.92      1.6      1.6   100    19.1     0    11.545    -9.9    0.000     100      0.00
    17     3  2013   162    2    16.8    1.20     -9      0      0      0    95.0    0.92      3.0      3.0   100    19.1     0    11.722    -9.9    0.000     100      0.00
    18     3  2013   163    2    17.0    1.20     -9      0      0      0    95.0    0.92      2.8      2.8   100    19.1     0    11.898    -9.9    0.000     100      0.00
    19     3  2013   164    2    19.3    1.20     -9      0      0      0    95.0    0.92      3.2      3.2   100    19.1     0    12.074    -9.9    0.000     100      0.00
    20     3  2013   165    2    15.1    1.20     -9      0      0      0    95.0    0.92      4.0      4.0   100    19.1     0    12.250    -9.9    0.000     100      0.00
    21     3  2013   166    2    11.9    1.20     -9      0      0      0    95.0    0.92      2.0      2.0   100    19.1     0    12.425    -9.9    0.000     100      0.00
    22     3  2013   167    2    14.9    1.20     -9      0      0      0    95.0    0.91      3.0      3.0   100    19.1     0    12.600    -9.9    0.000     100      0.00
    23     3  2013   168    2    16.7    1.20     -9      0      0      0    95.0    0.91      2.7      2.7   100    19.1     0    12.775    -9.9    0.000     100      0.00
    24     3  2013   169    2    14.3    1.20     -9      1      0      0    95.0    0.91      3.5      3.4    99    19.1     0    12.948    -9.9    0.000     100      0.00
    25     3  2013   170    2     9.7    1.20     -9      0      0      0    95.0    0.91      1.8      1.8   100    19.1     5    13.114    -9.9    0.000     100      0.00
    26     3  2013   171    2    12.6    1.20     -9      0      0      0    95.0    0.91      2.6      2.6   100    19.1     0    13.288    -9.9    0.000     100      0.00
    27     3  2013   172    2    15.1    1.20     -9      3      0      0    95.0    0.91      3.3      3.2    97    19.1     0    13.456    -9.9    0.000     100      0.00
    28     3  2013   173    2    18.9    1.20     -9     10      0      0    95.0    0.91      3.9      3.5    90    19.1     0    13.613    -9.9    0.000     100      0.00
    29     3  2013   174    2    15.0    1.20     -9      6      0      0    95.0    0.91      2.9      2.7    94    19.1     0    13.775    -9.9    0.000     100      0.00
    30     3  2013   175    2    16.3    1.20     -9     12      0      0    95.0    0.90      3.3      3.0    88    19.1     0    13.928    -9.9    0.000     100      0.00
    31     3  2013   176    2    13.2    1.20     -9      6      0      0    95.0    0.90      2.2      2.0    94    19.1     0    14.090    -9.9    0.000     100      0.00
     1     4  2013   177    2    16.6    1.20     -9     16      0      0    95.0    0.90      3.4      2.9    84    19.1     0    14.234    -9.9    0.000     100      0.00
     2     4  2013   178    2    13.9    1.20     -9     12      0      0    95.0    0.90      2.4      2.1    88    19.1     0    14.385    -9.9    0.000     100      0.00
     3     4  2013   179    3    14.4    1.20     -9     18      0      0    95.0    0.90      3.0      2.4    82    19.1     0    14.526    -9.9    0.000     100      0.00
     4     4  2013   180    3    13.6    1.20     -9      9      0      0    95.0    0.90      1.6      1.5    91    19.1     0    14.682    -9.9    0.000      99      0.00
     5     4  2013   181    3    10.2    1.20     -9     15      0      0    95.0    0.90      2.5      2.1    85    19.1     4    14.822    -9.9    0.000      99      0.00
     6     4  2013   182    3     9.2    1.20     -9     18      0      0    95.0    0.89      2.8      2.3    82    19.1     7    14.952     1.5    0.228      99      0.09
     7     4  2013   183    3    13.3    1.20     -9     23      0      0    95.0    0.89      3.2      2.5    77    19.1     0    15.083     1.7    0.263      99      0.10
     8     4  2013   184    3    14.3    1.20     -9     23      0      0    95.0    0.89      2.8      2.1    77    19.1     0    15.216     2.0    0.305      99      0.11
     9     4  2013   185    3    11.2    1.20     -9     28      0      0    95.0    0.89      3.4      2.4    72    19.1     0    15.338     2.3    0.351      98      0.13
    10     4  2013   186    3    10.8    1.20     -9     28      0      0    95.0    0.89      3.0      2.2    72    19.1     2    15.458     2.6    0.405      98      0.15
    11     4  2013   187    3    14.4    1.20     -9     33      0      0    95.0    0.89      3.7      2.5    67    19.1     0    15.571     3.0    0.466      98      0.17
    12     4  2013   188    3    17.6    1.20     -9     36      0      0    95.0    0.89      4.0      2.5    64    19.1     0    15.679     3.4    0.535      97      0.19
    13     4  2013   189    3    19.6    1.20     -9     39      0      0    95.0    0.89      4.3      2.6    61    19.1     0    15.781     3.9    0.613      97      0.22
    14     4  2013   190    3    21.3    1.20     -9     44      0      0    95.0    0.88      5.0      2.8    56    19.1     0    15.876     4.4    0.702      97      0.25
    15     4  2013   191    3    22.1    1.20     -9     44      0      0    95.0    0.88      4.4      2.5    56    19.1     0    15.971     5.0    0.802      96      0.28
    16     4  2013   192    3    22.1    1.20     -9     47      0      0    95.0    0.88      4.8      2.6    53    19.1     0    16.061     5.7    0.914      96      0.31
    17     4  2013   193    4    21.1    1.20     -9     46      0      0    95.0    0.88      4.2      2.3    54    19.1     0    16.151     6.4    1.040      95      0.35
    18     4  2013   194    4    19.2    1.20     -9     46      0      0    95.0    0.88      3.9      2.1    54    19.1     0    16.241     7.3    1.181      95      0.40
    19     4  2013   195    4    11.2    1.20     -9      0      0      0    95.0    0.88      1.8      1.8   100    19.1     0    16.409     8.2    1.346      95      0.45
    20     4  2013   196    4     8.0    1.20     -9      0      0      0    95.0    0.87      1.4      1.4   100    19.1    16    16.550     9.2    1.529      95      0.51
    21     4  2013   197    4    11.5    1.20     -9      0      0      0    95.0    0.87      1.7      1.7   100    19.1     0    16.717    10.3    1.724      95      0.57
    22     4  2013   198    4    12.1    1.20     -9      0      0      0    95.0    0.87      1.5      1.5   100    19.1     0    16.884    11.4    1.923      95      0.64
    23     4  2013   199    4    16.9    1.20     -9      0      0      0    95.0    0.87      2.8      2.8   100    19.1     0    17.050    12.5    2.126      95      0.70
    24     4  2013   200    4    18.3    1.20     -9      0      0      0    95.0    0.87      3.7      3.7   100    19.1     0    17.217    13.5    2.332      95      0.76
    25     4  2013   201    4    20.1    1.20     -9      4      0      0    95.0    0.87      4.2      4.1    96    19.1     0    17.377    14.6    2.541      95      0.81
    26     4  2013   202    4    20.4    1.20     -9      8      0      0    95.0    0.87      4.5      4.1    92    19.1     0    17.528    15.7    2.752      95      0.87
    27     4  2013   203    4    21.9    1.20     -9     13      0      0    95.0    0.87      4.8      4.1    87    19.1     0    17.672    16.8    2.965      95      0.92
    28     4  2013   204    4    22.3    1.20     -9      4      0      0    95.0    0.86      2.8      2.7    96    19.1     0    17.831    17.9    3.184      95      0.98
    29     4  2013   205    4    19.1    1.20     -9      0      0      0    95.0    0.86      2.0      2.0   100    19.1     0    17.996    18.9    3.408      95      1.05
    30     4  2013   206    4    19.1    1.20     -9     10      0      0    77.5    0.62      2.7      2.4    90    19.1     0    18.102    20.0    3.623      95      1.10
     1     5  2013   207    4    20.1    1.20     -9     -9      0      0     0.0    0.00      0.0      0.0   100    19.1     0    18.102    21.0    3.804      95      1.16
     2     5  2013   208   -9    22.4    1.20     -9     -9      0      0     0.0    0.00      0.0      0.0   100    19.1     0    18.102    21.0    3.804      95      1.16
     3     5  2013    -9    0    22.0    1.20     -9     -9      0      0     0.0    0.00      0.0      0.0   100    19.1     0    18.102    21.0    3.804      95      1.16
     4     5  2013    -9    0    20.9    1.20     -9     -9      0      0     0.0    0.00      0.0      0.0   100    19.1     0    18.102    21.0    3.804      95      1.16
     5     5  2013    -9    0    20.1    1.20     -9     -9      0      0     0.0    0.00      0.0      0.0   100    19.1     0    18.102    21.0    3.804      95      1.16
     6     5  2013    -9    0    16.6    1.20     -9     -9      0      0     0.0    0.00      0.0      0.0   100    19.1     0    18.102    21.0    3.804      95      1.16
     7     5  2013    -9    0    17.1    1.20     -9     -9      0      0     0.0    0.00      0.0      0.0   100    19.1     0    18.102    21.0    3.804      95      1.16
     8     5  2013    -9    0    16.9    1.20     -9     -9      0      0     0.0    0.00      0.0      0.0   100    19.1     0    18.102    21.0    3.804      95      1.16
     9     5  2013    -9    0    20.6    1.20     -9     -9      0      0     0.0    0.00      0.0      0.0   100    19.1     0    18.102    21.0    3.804      95      1.16
    10     5  2013    -9    0    20.1    1.20     -9     -9      0      0     0.0    0.00      0.0      0.0   100    19.1     0    18.102    21.0    3.804      95      1.16
    11     5  2013    -9    0    21.9    1.20     -9     -9      0      0     0.0    0.00      0.0      0.0   100    19.1     0    18.102    21.0    3.804      95      1.16
    12     5  2013    -9    0    22.8    1.20     -9     -9      0      0     0.0    0.00      0.0      0.0   100    19.1     0    18.102    21.0    3.804      95      1.16
    13     5  2013    -9    0    23.5    1.20     -9     -9      0      0     0.0    0.00      0.0      0.0   100    19.1     0    18.102    21.0    3.804      95      1.16
    14     5  2013    -9    0    24.1    1.20     -9     -9      0      0     0.0    0.00      0.0      0.0   100    19.1     0    18.102    21.0    3.804      95      1.16
    15     5  2013    -9    0    21.9    1.20     -9     -9      0      0     0.0    0.00      0.0      0.0   100    19.1     0    18.102    21.0    3.804      95      1.16
    16     5  2013    -9    0    19.4    1.20     -9     -9      0      0     0.0    0.00      0.0      0.0   100    19.1     0    18.102    21.0    3.804      95      1.16
    17     5  2013    -9    0    17.4    1.20     -9     -9      0      0     0.0    0.00      0.0      0.0   100    19.1     0    18.102    21.0    3.804      95      1.16
    18     5  2013    -9    0    20.4    1.20     -9     -9      0      0     0.0    0.00      0.0      0.0   100    19.1     0    18.102    21.0    3.804      95      1.16
    19     5  2013    -9    0    23.1    1.20     -9     -9      0      0     0.0    0.00      0.0      0.0   100    19.1     0    18.102    21.0    3.804      95      1.16
    20     5  2013    -9    0    23.4    1.20     -9     -9      0      0     0.0    0.00      0.0      0.0   100    19.1     0    18.102    21.0    3.804      95      1.16
    21     5  2013    -9    0    23.9    1.20     -9     -9      0      0     0.0    0.00      0.0      0.0   100    19.1     0    18.102    21.0    3.804      95      1.16
    22     5  2013    -9    0    26.6    1.20     -9     -9      0      0     0.0    0.00      0.0      0.0   100    19.1     0    18.102    21.0    3.804      95      1.16
    23     5  2013    -9    0    24.3    1.20     -9     -9      0      0     0.0    0.00      0.0      0.0   100    19.1     0    18.102    21.0    3.804      95      1.16
    24     5  2013    -9    0    22.2    1.20     -9     -9      0      0     0.0    0.00      0.0      0.0   100    19.1     0    18.102    21.0    3.804      95      1.16
    25     5  2013    -9    0    20.6    1.20     -9     -9      0      0     0.0    0.00      0.0      0.0   100    19.1     0    18.102    21.0    3.804      95      1.16
    26     5  2013    -9    0    21.8    1.20     -9     -9      0      0     0.0    0.00      0.0      0.0   100    19.1     0    18.102    21.0    3.804      95      1.16
    27     5  2013    -9    0    23.6    1.20     -9     -9      0      0     0.0    0.00      0.0      0.0   100    19.1     0    18.102    21.0    3.804      95      1.16
    28     5  2013    -9    0    21.4    1.20     -9     -9      0      0     0.0    0.00      0.0      0.0   100    19.1     0    18.102    21.0    3.804      95      1.16
    29     5  2013    -9    0    17.3    1.20     -9     -9      0      0     0.0    0.00      0.0      0.0   100    19.1     0    18.102    21.0    3.804      95      1.16
    30     5  2013    -9    0    18.1    1.20     -9     -9      0      0     0.0    0.00      0.0      0.0   100    19.1     0    18.102    21.0    3.804      95      1.16
    31     5  2013    -9    0    20.7    1.20     -9     -9      0      0     0.0    0.00      0.0      0.0   100    19.1     0    18.102    21.0    3.804      95      1.16
     1     6  2013    -9    0    22.3    1.20     -9     -9      0      0     0.0    0.00      0.0      0.0   100    19.1     0    18.102    21.0    3.804      95      1.16
     2     6  2013    -9    0    23.8    1.20     -9     -9      0      0     0.0    0.00      0.0      0.0   100    19.1     0    18.102    21.0    3.804      95      1.16
     3     6  2013    -9    0    24.6    0.00     -9     -9      0      0     0.0    0.00      0.0      0.0   100    19.1     0    18.102    21.0    3.804      95      1.16
     4     6  2013    -9    0    24.3    0.00     -9     -9      0      0     0.0    0.00      0.0      0.0   100    19.1     0    18.102    21.0    3.804      95      1.16
     5     6  2013    -9    0    27.1    0.00     -9     -9      0      0     0.0    0.00      0.0      0.0   100    19.1     0    18.102    21.0    3.804      95      1.16
     6     6  2013    -9    0    25.4    0.00     -9     -9      0      0     0.0    0.00      0.0      0.0   100    19.1     0    18.102    21.0    3.804      95      1.16
     7     6  2013    -9    0    24.9    0.00     -9     -9      0      0     0.0    0.00      0.0      0.0   100    19.1     0    18.102    21.0    3.804      95      1.16
     8     6  2013    -9    0    24.5    0.00     -9     -9      0      0     0.0    0.00      0.0      0.0   100    19.1     0    18.102    21.0    3.804      95      1.16
     9     6  2013    -9    0    19.1    0.00     -9     -9      0      0     0.0    0.00      0.0      0.0   100    19.1     0    18.102    21.0    3.804      95      1.16
    10     6  2013    -9    0    22.0    0.00     -9     -9      0      0     0.0    0.00      0.0      0.0   100    19.1     0    18.102    21.0    3.804      95      1.16
    11     6  2013    -9    0    20.9    0.00     -9     -9      0      0     0.0    0.00      0.0      0.0   100    19.1     0    18.102    21.0    3.804      95      1.16
    12     6  2013    -9    0    21.6    0.00     -9     -9      0      0     0.0    0.00      0.0      0.0   100    19.1     0    18.102    21.0    3.804      95      1.16
    13     6  2013    -9    0    25.1    0.00     -9     -9      0      0     0.0    0.00      0.0      0.0   100    19.1     0    18.102    21.0    3.804      95      1.16
    14     6  2013    -9    0    26.5    0.00     -9     -9      0      0     0.0    0.00      0.0      0.0   100    19.1     0    18.102    21.0    3.804      95      1.16
    15     6  2013    -9    0    25.9    0.00     -9     -9      0      0     0.0    0.00      0.0      0.0   100    19.1     0    18.102    21.0    3.804      95      1.16
    16     6  2013    -9    0    26.4    0.00     -9     -9      0      0     0.0    0.00      0.0      0.0   100    19.1     0    18.102    21.0    3.804      95      1.16
    17     6  2013    -9    0    26.8    0.00     -9     -9      0      0     0.0    0.00      0.0      0.0   100    19.1     0    18.102    21.0    3.804      95      1.16
    18     6  2013    -9    0    28.8    0.00     -9     -9      0      0     0.0    0.00      0.0      0.0   100    19.1     0    18.102    21.0    3.804      95      1.16
    19     6  2013    -9    0    28.3    0.00     -9     -9      0      0     0.0    0.00      0.0      0.0   100    19.1     0    18.102    21.0    3.804      95      1.16
    20     6  2013    -9    0    24.6    0.00     -9     -9      0      0     0.0    0.00      0.0      0.0   100    19.1     0    18.102    21.0    3.804      95      1.16
