AquaCrop 4.0 (June 2012) - Output created on (date) : 11/13/2015   at (time) : 4:33:04 PM
Water content in soil profile (WCTotal layer: 0.00 - 1.20 m) and root zone (Wr with Zrx = 1.20 m)

   Day Month  Year   DAP Stage     WCTot   Wr(Zx)      Z       Wr    Wr(SAT)    Wr(FC)   Wr(exp)   Wr(sto)   Wr(sen)   Wr(PWP)
                                     mm       mm       m       mm        mm        mm        mm        mm        mm        mm
     1     9  2012    -9    0     441.7    441.7    0.00     -9.9      -9.9      -9.9      -9.9      -9.9      -9.9      -9.9
     2     9  2012    -9    0     430.7    430.7    0.00     -9.9      -9.9      -9.9      -9.9      -9.9      -9.9      -9.9
     3     9  2012    -9    0     418.5    418.5    0.00     -9.9      -9.9      -9.9      -9.9      -9.9      -9.9      -9.9
     4     9  2012    -9    0     410.0    410.0    0.00     -9.9      -9.9      -9.9      -9.9      -9.9      -9.9      -9.9
     5     9  2012    -9    0     405.6    405.6    0.00     -9.9      -9.9      -9.9      -9.9      -9.9      -9.9      -9.9
     6     9  2012    -9    0     403.0    403.0    0.00     -9.9      -9.9      -9.9      -9.9      -9.9      -9.9      -9.9
     7     9  2012    -9    0     414.9    414.9    0.00     -9.9      -9.9      -9.9      -9.9      -9.9      -9.9      -9.9
     8     9  2012    -9    0     450.7    450.7    0.00     -9.9      -9.9      -9.9      -9.9      -9.9      -9.9      -9.9
     9     9  2012    -9    0     436.6    436.6    0.00     -9.9      -9.9      -9.9      -9.9      -9.9      -9.9      -9.9
    10     9  2012    -9    0     440.3    440.3    0.00     -9.9      -9.9      -9.9      -9.9      -9.9      -9.9      -9.9
    11     9  2012    -9    0     427.4    427.4    0.00     -9.9      -9.9      -9.9      -9.9      -9.9      -9.9      -9.9
    12     9  2012    -9    0     416.8    416.8    0.00     -9.9      -9.9      -9.9      -9.9      -9.9      -9.9      -9.9
    13     9  2012    -9    0     407.9    407.9    0.00     -9.9      -9.9      -9.9      -9.9      -9.9      -9.9      -9.9
    14     9  2012    -9    0     402.9    402.9    0.00     -9.9      -9.9      -9.9      -9.9      -9.9      -9.9      -9.9
    15     9  2012    -9    0     399.4    399.4    0.00     -9.9      -9.9      -9.9      -9.9      -9.9      -9.9      -9.9
    16     9  2012    -9    0     398.8    398.8    0.00     -9.9      -9.9      -9.9      -9.9      -9.9      -9.9      -9.9
    17     9  2012    -9    0     396.7    396.7    0.00     -9.9      -9.9      -9.9      -9.9      -9.9      -9.9      -9.9
    18     9  2012    -9    0     394.6    394.6    0.00     -9.9      -9.9      -9.9      -9.9      -9.9      -9.9      -9.9
    19     9  2012    -9    0     393.0    393.0    0.00     -9.9      -9.9      -9.9      -9.9      -9.9      -9.9      -9.9
    20     9  2012    -9    0     392.8    392.8    0.00     -9.9      -9.9      -9.9      -9.9      -9.9      -9.9      -9.9
    21     9  2012    -9    0     392.6    392.6    0.00     -9.9      -9.9      -9.9      -9.9      -9.9      -9.9      -9.9
    22     9  2012    -9    0     392.0    392.0    0.00     -9.9      -9.9      -9.9      -9.9      -9.9      -9.9      -9.9
    23     9  2012    -9    0     391.4    391.4    0.00     -9.9      -9.9      -9.9      -9.9      -9.9      -9.9      -9.9
    24     9  2012    -9    0     390.8    390.8    0.00     -9.9      -9.9      -9.9      -9.9      -9.9      -9.9      -9.9
    25     9  2012    -9    0     398.2    398.2    0.00     -9.9      -9.9      -9.9      -9.9      -9.9      -9.9      -9.9
    26     9  2012    -9    0     396.1    396.1    0.00     -9.9      -9.9      -9.9      -9.9      -9.9      -9.9      -9.9
    27     9  2012    -9    0     393.1    393.1    0.00     -9.9      -9.9      -9.9      -9.9      -9.9      -9.9      -9.9
    28     9  2012    -9    0     390.7    390.7    0.00     -9.9      -9.9      -9.9      -9.9      -9.9      -9.9      -9.9
    29     9  2012    -9    0     389.8    389.8    0.00     -9.9      -9.9      -9.9      -9.9      -9.9      -9.9      -9.9
    30     9  2012    -9    0     389.1    389.1    0.00     -9.9      -9.9      -9.9      -9.9      -9.9      -9.9      -9.9
     1    10  2012    -9    0     388.5    388.5    0.00     -9.9      -9.9      -9.9      -9.9      -9.9      -9.9      -9.9
     2    10  2012    -9    0     395.0    395.0    0.00     -9.9      -9.9      -9.9      -9.9      -9.9      -9.9      -9.9
     3    10  2012    -9    0     394.1    394.1    0.00     -9.9      -9.9      -9.9      -9.9      -9.9      -9.9      -9.9
     4    10  2012    -9    0     393.4    393.4    0.00     -9.9      -9.9      -9.9      -9.9      -9.9      -9.9      -9.9
     5    10  2012    -9    0     392.5    392.5    0.00     -9.9      -9.9      -9.9      -9.9      -9.9      -9.9      -9.9
     6    10  2012    -9    0     392.0    392.0    0.00     -9.9      -9.9      -9.9      -9.9      -9.9      -9.9      -9.9
     7    10  2012     1    1     391.5    391.5    0.30     83.5     133.2     101.7      84.6      61.7      45.9      36.0
     8    10  2012     2    1     393.0    393.0    0.30     84.9     133.2     101.7      84.6      61.5      45.9      36.0
     9    10  2012     3    1     392.2    392.2    0.30     84.1     133.2     101.7      84.6      64.2      45.9      36.0
    10    10  2012     4    1     391.4    391.4    0.34     97.4     151.7     115.8      96.3      72.6      52.2      41.0
    11    10  2012     5    1     391.0    391.0    0.38    111.6     170.8     130.4      97.2      78.8      54.0      46.2
    12    10  2012     6    2     390.6    390.6    0.43    125.4     189.3     144.5     107.7      87.3      59.9      51.2
    13    10  2012     7    2     389.9    389.9    0.47    138.1     206.8     157.9     121.7      98.8      67.1      55.9
    14    10  2012     8    2     389.5    389.5    0.50    148.9     221.6     169.2     127.2     103.2      70.6      59.9
    15    10  2012     9    2     389.1    389.1    0.53    158.3     234.4     179.0     134.2     108.8      74.5      63.4
    16    10  2012    10    2     391.0    391.0    0.56    169.7     246.8     188.4     146.0     118.6      80.4      66.7
    17    10  2012    11    2     388.9    388.9    0.58    174.4     255.7     195.3     149.5     121.4      82.6      69.1
    18    10  2012    12    2     388.3    388.3    0.59    179.3     263.0     200.8     150.6     122.1      83.6      71.1
    19    10  2012    13    2     387.8    387.8    0.62    186.8     273.5     208.8     157.5     127.8      87.4      73.9
    20    10  2012    14    2     387.1    387.1    0.64    194.3     284.1     216.9     164.6     133.6      91.2      76.8
    21    10  2012    15    2     386.6    386.6    0.66    201.7     294.5     224.9     169.1     137.2      93.8      79.6
    22    10  2012    16    2     385.6    385.6    0.68    207.5     303.3     231.6     177.9     144.4      98.2      82.0
    23    10  2012    17    2     387.0    387.0    0.69    212.6     308.2     235.3     174.3     141.3      97.1      83.3
    24    10  2012    18    2     384.9    384.9    0.71    217.5     317.4     242.3     185.0     150.1     102.3      85.8
    25    10  2012    19    2     383.7    383.7    0.73    222.1     324.8     248.0     186.5     151.3     103.5      87.8
    26    10  2012    20    2     382.3    382.3    0.76    229.4     336.3     256.8     197.2     160.1     108.9      90.9
    27    10  2012    21    2     381.5    381.5    0.78    234.9     344.4     263.0     195.4     158.4     108.7      93.1
    28    10  2012    22    2     380.5    380.5    0.79    239.5     351.7     268.5     200.1     162.3     111.3      95.1
    29    10  2012    23    2     380.4    380.4    0.81    246.9     361.5     276.0     206.3     167.3     114.7      97.7
    30    10  2012    24    2     378.6    378.6    0.83    250.5     368.5     281.4     212.9     172.7     118.0      99.6
    31    10  2012    25    2     376.5    376.5    0.84    253.4     375.0     286.3     218.0     176.9     120.6     101.4
     1    11  2012    26    2     375.2    375.2    0.86    256.3     380.4     290.5     216.5     175.5     120.4     102.8
     2    11  2012    27    2     373.4    373.4    0.87    259.3     386.8     295.3     223.4     181.3     123.8     104.5
     3    11  2012    28    2     370.0    370.0    0.89    260.9     393.1     300.2     237.4     192.9     130.2     106.2
     4    11  2012    29    2     368.7    368.7    0.89    262.0     396.2     302.5     226.1     183.4     125.7     107.1
     5    11  2012    30    2     367.4    367.4    0.90    263.0     399.3     304.9     227.9     184.8     126.6     107.9
     6    11  2012    31    2     366.2    366.2    0.91    264.4     402.7     307.5     229.1     185.8     127.4     108.8
     7    11  2012    32    2     368.0    368.0    0.92    270.0     407.6     311.2     231.2     187.5     128.7     110.2
     8    11  2012    33    2     366.6    366.6    0.93    272.0     412.0     314.6     235.1     190.7     130.7     111.4
     9    11  2012    34    2     365.5    365.5    0.94    274.3     416.4     317.9     235.5     190.9     131.1     112.5
    10    11  2012    35    2     365.0    365.0    0.95    277.2     420.6     321.1     240.8     195.3     133.7     113.7
    11    11  2012    36    2     363.5    363.5    0.95    277.8     423.3     323.2     242.3     196.6     134.6     114.4
    12    11  2012    37    2     362.0    362.0    0.96    279.9     428.1     326.9     245.1     198.8     136.1     115.7
    13    11  2012    38    2     360.2    360.2    0.97    281.3     432.1     329.9     248.8     201.9     138.0     116.8
    14    11  2012    39    2     359.3    359.3    0.98    282.7     435.2     332.3     245.3     198.9     136.8     117.6
    15    11  2012    40    2     358.5    358.5    0.99    284.8     438.9     335.1     249.0     201.9     138.6     118.6
    16    11  2012    41    2     356.9    356.9    1.00    286.9     443.6     338.7     253.9     206.0     141.0     119.9
    17    11  2012    42    2     356.0    356.0    1.01    288.6     447.0     341.3     252.0     204.3     140.5     120.8
    18    11  2012    43    2     354.0    354.0    1.02    290.8     452.4     345.4     262.1     212.7     145.1     122.3
    19    11  2012    44    2     352.6    352.6    1.03    292.3     456.1     348.2     260.3     211.1     144.6     123.3
    20    11  2012    45    2     351.6    351.6    1.04    294.5     460.1     351.3     259.4     210.3     144.6     124.3
    21    11  2012    46    2     350.5    350.5    1.05    297.0     464.7     354.8     262.8     213.0     146.4     125.6
    22    11  2012    47    2     348.3    348.3    1.06    298.5     469.4     358.4     273.6     222.1     151.3     126.9
    23    11  2012    48    2     346.8    346.8    1.07    299.9     473.1     361.3     270.9     219.7     150.4     127.9
    24    11  2012    49    2     345.7    345.7    1.07    299.9     474.5     362.3     268.3     217.6     149.5     128.3
    25    11  2012    50    2     423.8    423.8    1.08    380.1     477.4     364.5     274.1     222.3     152.1     129.0
    26    11  2012    51    2     421.3    421.3    1.08    378.9     479.0     365.7     270.8     219.6     150.9     129.4
    27    11  2012    52    2     416.5    416.5    1.08    375.8     481.1     367.4     274.6     222.7     152.6     130.0
    28    11  2012    53    2     411.5    411.5    1.09    372.3     483.1     368.9     277.4     225.0     153.9     130.6
    29    11  2012    54    2     408.8    408.8    1.09    369.8     483.4     369.1     270.0     218.8     150.8     130.6
    30    11  2012    55    2     407.1    407.1    1.09    368.2     483.4     369.1     270.8     219.5     151.2     130.6
     1    12  2012    56    2     405.8    405.8    1.09    368.0     484.8     370.2     272.5     220.9     152.0     131.0
     2    12  2012    57    2     404.9    404.9    1.09    367.9     485.8     370.9     272.1     220.6     151.9     131.3
     3    12  2012    58    2     403.5    403.5    1.10    368.2     488.0     372.6     278.5     225.9     154.8     131.9
     4    12  2012    59    2     402.2    402.2    1.10    368.6     490.3     374.3     278.9     226.2     155.1     132.5
     5    12  2012    60    2     401.0    401.0    1.11    369.5     492.9     376.3     279.6     226.7     155.6     133.2
     6    12  2012    61    2     399.3    399.3    1.11    369.5     494.9     377.9     284.2     230.5     157.7     133.8
     7    12  2012    62    2     398.5    398.5    1.12    370.6     497.4     379.8     279.5     226.6     155.9     134.4
     8    12  2012    63    2     396.9    396.9    1.12    369.4     498.0     380.2     286.0     232.0     158.7     134.6
     9    12  2012    64    2     396.1    396.1    1.12    368.7     498.0     380.2     279.0     226.1     155.8     134.6
    10    12  2012    65    2     395.3    395.3    1.12    368.9     499.4     381.3     280.7     227.5     156.6     135.0
    11    12  2012    66    2     394.6    394.6    1.12    368.3     499.4     381.3     278.9     226.0     155.8     135.0
    12    12  2012    67    2     394.0    394.0    1.12    367.7     499.4     381.3     278.9     226.0     155.8     135.0
    13    12  2012    68    2     393.3    393.3    1.12    367.0     499.4     381.3     278.9     226.0     155.8     135.0
    14    12  2012    69    2     392.7    392.7    1.13    367.1     500.4     382.0     279.5     226.5     156.1     135.2
    15    12  2012    70    2     392.2    392.2    1.13    367.0     500.9     382.4     278.9     226.0     155.9     135.4
    16    12  2012    71    2     391.6    391.6    1.13    366.8     501.3     382.8     279.1     226.2     156.1     135.5
    17    12  2012    72    2     390.6    390.6    1.13    367.4     503.4     384.4     284.7     230.8     158.6     136.1
    18    12  2012    73    2     389.7    389.7    1.14    367.1     504.1     384.9     283.3     229.6     158.0     136.2
    19    12  2012    74    2     389.1    389.1    1.14    366.5     504.1     384.9     281.6     228.2     157.3     136.2
    20    12  2012    75    2     390.1    390.1    1.14    367.7     504.4     385.1     280.8     227.6     157.0     136.3
    21    12  2012    76    2     389.1    389.1    1.14    367.2     505.0     385.6     284.7     230.8     158.7     136.5
    22    12  2012    77    2     388.0    388.0    1.14    366.5     505.6     386.0     286.8     232.5     159.6     136.6
    23    12  2012    78    2     386.9    386.9    1.14    365.4     505.6     386.0     285.9     231.8     159.2     136.6
    24    12  2012    79    2     386.2    386.2    1.14    364.7     505.6     386.0     283.2     229.6     158.1     136.6
    25    12  2012    80    2     385.6    385.6    1.14    364.1     505.6     386.0     282.4     228.8     157.8     136.6
    26    12  2012    81    2     384.8    384.8    1.14    363.4     505.6     386.0     283.2     229.6     158.1     136.6
    27    12  2012    82    2     384.3    384.3    1.14    362.8     505.6     386.0     281.5     228.1     157.4     136.6
    28    12  2012    83    2     383.5    383.5    1.14    362.0     505.6     386.0     284.1     230.3     158.5     136.6
    29    12  2012    84    2     381.9    381.9    1.14    360.5     505.6     386.0     290.3     235.5     161.1     136.6
    30    12  2012    85    2     380.7    380.7    1.14    359.2     505.6     386.0     287.7     233.3     160.0     136.6
    31    12  2012    86    2     379.5    379.5    1.14    358.5     506.1     386.4     287.1     232.8     159.8     136.8
     1     1  2013    87    2     378.1    378.1    1.14    357.3     506.5     386.7     289.9     235.2     161.0     136.9
     2     1  2013    88    2     377.3    377.3    1.14    356.5     506.5     386.7     284.6     230.7     158.8     136.9
     3     1  2013    89    2     376.1    376.1    1.14    355.4     506.5     386.7     287.3     232.9     159.9     136.9
     4     1  2013    90    2     375.5    375.5    1.14    354.7     506.5     386.7     282.9     229.2     158.0     136.9
     5     1  2013    91    2     374.6    374.6    1.14    353.8     506.5     386.7     285.5     231.5     159.1     136.9
     6     1  2013    92    2     374.1    374.1    1.14    353.3     506.5     386.7     282.0     228.5     157.7     136.9
     7     1  2013    93    2     373.4    373.4    1.14    352.7     506.5     386.7     282.9     229.2     158.0     136.9
     8     1  2013    94    2     372.1    372.1    1.14    352.1     507.4     387.4     289.6     234.9     160.9     137.1
     9     1  2013    95    2     371.4    371.4    1.14    351.4     507.4     387.4     284.3     230.4     158.7     137.1
    10     1  2013    96    2     370.5    370.5    1.14    350.5     507.4     387.4     286.1     231.9     159.5     137.1
    11     1  2013    97    2     368.9    368.9    1.15    350.3     509.2     388.8     292.4     237.2     162.2     137.6
    12     1  2013    98    2     368.2    368.2    1.15    349.6     509.2     388.8     285.3     231.2     159.3     137.6
    13     1  2013    99    2     367.5    367.5    1.15    349.1     509.4     389.0     285.4     231.3     159.3     137.7
    14     1  2013   100    2     366.5    366.5    1.15    348.1     509.4     389.0     288.1     233.6     160.5     137.7
    15     1  2013   101    2     365.0    365.0    1.15    348.8     512.3     391.2     294.2     238.6     163.2     138.5
    16     1  2013   102    2     363.4    363.4    1.16    349.3     514.9     393.1     295.7     239.8     164.1     139.2
    17     1  2013   103    2     362.3    362.3    1.16    348.8     515.7     393.7     292.5     237.2     162.8     139.4
    18     1  2013   104    2     361.6    361.6    1.16    348.1     515.7     393.7     288.9     234.2     161.3     139.4
    19     1  2013   105    2     360.8    360.8    1.16    347.3     515.7     393.7     289.8     234.9     161.7     139.4
    20     1  2013   106    2     360.1    360.1    1.16    347.8     517.2     394.9     291.6     236.4     162.5     139.8
    21     1  2013   107    2     359.0    359.0    1.17    348.1     519.0     396.2     294.4     238.7     163.8     140.3
    22     1  2013   108    2     357.6    357.6    1.17    348.1     520.7     397.5     297.2     241.0     165.1     140.7
    23     1  2013   109    2     356.1    356.1    1.18    347.8     522.3     398.8     299.9     243.3     166.4     141.2
    24     1  2013   110    2     354.1    354.1    1.18    347.6     524.6     400.5     305.8     248.2     169.1     141.8
    25     1  2013   111    2     352.0    352.0    1.19    347.4     526.9     402.3     308.1     250.0     170.2     142.4
    26     1  2013   112    2     350.4    350.4    1.19    348.3     530.2     404.8     305.3     247.7     169.3     143.3
    27     1  2013   113    2     349.2    349.2    1.20    348.8     532.3     406.4     302.8     245.6     168.4     143.9
    28     1  2013   114    2     347.8    347.8    1.20    347.8     532.8     406.8     305.0     247.4     169.4     144.0
    29     1  2013   115    2     346.7    346.7    1.20    346.7     532.8     406.8     302.2     245.0     168.2     144.0
    30     1  2013   116    2     345.3    345.3    1.20    345.3     532.8     406.8     305.0     247.4     169.4     144.0
    31     1  2013   117    2     344.3    344.3    1.20    344.3     532.8     406.8     301.3     244.3     167.8     144.0
     1     2  2013   118    2     343.4    343.4    1.20    343.4     532.8     406.8     300.4     243.5     167.4     144.0
     2     2  2013   119    2     342.6    342.6    1.20    342.6     532.8     406.8     299.4     242.7     167.0     144.0
     3     2  2013   120    2     344.5    344.5    1.20    344.5     532.8     406.8     298.5     241.9     166.6     144.0
     4     2  2013   121    2     344.9    344.9    1.20    344.9     532.8     406.8     297.6     241.2     166.3     144.0
     5     2  2013   122    2     344.0    344.0    1.20    344.0     532.8     406.8     303.2     245.8     168.6     144.0
     6     2  2013   123    2     343.1    343.1    1.20    343.1     532.8     406.8     300.4     243.5     167.4     144.0
     7     2  2013   124    2     342.2    342.2    1.20    342.2     532.8     406.8     300.4     243.5     167.4     144.0
     8     2  2013   125    2     346.7    346.7    1.20    346.7     532.8     406.8     297.6     241.2     166.3     144.0
     9     2  2013   126    2     345.8    345.8    1.20    345.8     532.8     406.8     300.4     243.5     167.4     144.0
    10     2  2013   127    2     344.7    344.7    1.20    344.7     532.8     406.8     302.2     245.0     168.2     144.0
    11     2  2013   128    2     345.1    345.1    1.20    345.1     532.8     406.8     298.5     241.9     166.6     144.0
    12     2  2013   129    2     344.0    344.0    1.20    344.0     532.8     406.8     303.2     245.8     168.6     144.0
    13     2  2013   130    2     342.9    342.9    1.20    342.9     532.8     406.8     302.2     245.0     168.2     144.0
    14     2  2013   131    2     341.3    341.3    1.20    341.3     532.8     406.8     306.9     248.9     170.2     144.0
    15     2  2013   132    2     339.8    339.8    1.20    339.8     532.8     406.8     306.9     248.9     170.2     144.0
    16     2  2013   133    2     338.7    338.7    1.20    338.7     532.8     406.8     302.2     245.0     168.2     144.0
    17     2  2013   134    2     337.4    337.4    1.20    337.4     532.8     406.8     304.1     246.6     169.0     144.0
    18     2  2013   135    2     343.9    343.9    1.20    343.9     532.8     406.8     301.3     244.3     167.8     144.0
    19     2  2013   136    2     343.4    343.4    1.20    343.4     532.8     406.8     299.4     242.7     167.0     144.0
    20     2  2013   137    2     342.3    342.3    1.20    342.3     532.8     406.8     302.2     245.0     168.2     144.0
    21     2  2013   138    2     341.1    341.1    1.20    341.1     532.8     406.8     304.1     246.6     169.0     144.0
    22     2  2013   139    2     339.2    339.2    1.20    339.2     532.8     406.8     309.7     251.3     171.3     144.0
    23     2  2013   140    2     337.6    337.6    1.20    337.6     532.8     406.8     307.8     249.7     170.5     144.0
    24     2  2013   141    2     335.8    335.8    1.20    335.8     532.8     406.8     308.7     250.5     170.9     144.0
    25     2  2013   142    2     334.8    334.8    1.20    334.8     532.8     406.8     302.2     245.0     168.2     144.0
    26     2  2013   143    2     333.0    333.0    1.20    333.0     532.8     406.8     308.7     250.5     170.9     144.0
    27     2  2013   144    2     331.1    331.1    1.20    331.1     532.8     406.8     310.6     252.1     171.7     144.0
    28     2  2013   145    2     328.6    328.6    1.20    328.6     532.8     406.8     316.2     256.7     174.1     144.0
     1     3  2013   146    2     326.2    326.2    1.20    326.2     532.8     406.8     316.2     256.7     174.1     144.0
     2     3  2013   147    2     324.3    324.3    1.20    324.3     532.8     406.8     309.7     251.3     171.3     144.0
     3     3  2013   148    2     321.8    321.8    1.20    321.8     532.8     406.8     317.1     257.5     174.4     144.0
     4     3  2013   149    2     319.3    319.3    1.20    319.3     532.8     406.8     316.2     256.7     174.1     144.0
     5     3  2013   150    2     316.8    316.8    1.20    316.8     532.8     406.8     316.2     256.7     174.1     144.0
     6     3  2013   151    2     312.8    312.8    1.20    312.8     532.8     406.8     332.0     270.0     180.7     144.0
     7     3  2013   152    2     309.3    309.3    1.20    309.3     532.8     406.8     326.4     265.3     178.3     144.0
     8     3  2013   153    2     305.5    305.5    1.20    305.5     532.8     406.8     330.1     268.4     179.9     144.0
     9     3  2013   154    2     301.7    301.7    1.20    301.7     532.8     406.8     330.1     268.4     179.9     144.0
    10     3  2013   155    2     297.8    297.8    1.20    297.8     532.8     406.8     331.0     269.2     180.3     144.0
    11     3  2013   156    2     295.8    295.8    1.20    295.8     532.8     406.8     311.5     252.8     172.1     144.0
    12     3  2013   157    2     294.0    294.0    1.20    294.0     532.8     406.8     309.7     251.3     171.3     144.0
    13     3  2013   158    2     291.7    291.7    1.20    291.7     532.8     406.8     315.2     255.9     173.7     144.0
    14     3  2013   159    2     289.8    289.8    1.20    289.8     532.8     406.8     311.5     252.8     172.1     144.0
    15     3  2013   160    2     287.7    287.7    1.20    287.7     532.8     406.8     312.4     253.6     172.5     144.0
    16     3  2013   161    2     286.1    286.1    1.20    286.1     532.8     406.8     307.8     249.7     170.5     144.0
    17     3  2013   162    2     283.1    283.1    1.20    283.1     532.8     406.8     322.7     262.2     176.8     144.0
    18     3  2013   163    2     280.3    280.3    1.20    280.3     532.8     406.8     319.9     259.8     175.6     144.0
    19     3  2013   164    2     277.1    277.1    1.20    277.1     532.8     406.8     324.5     263.7     177.6     144.0
    20     3  2013   165    2     273.1    273.1    1.20    273.1     532.8     406.8     332.9     270.7     181.1     144.0
    21     3  2013   166    2     271.1    271.1    1.20    271.1     532.8     406.8     312.4     253.6     172.5     144.0
    22     3  2013   167    2     268.1    268.1    1.20    268.1     532.8     406.8     322.7     262.2     176.8     144.0
    23     3  2013   168    2     265.3    265.3    1.20    265.3     532.8     406.8     319.9     259.8     175.6     144.0
    24     3  2013   169    2     261.8    261.8    1.20    261.8     532.8     406.8     327.3     266.1     178.7     144.0
    25     3  2013   170    2     260.1    260.1    1.20    260.1     532.8     406.8     310.6     252.1     171.7     144.0
    26     3  2013   171    2     260.8    260.8    1.20    260.8     532.8     406.8     318.0     258.3     174.8     144.0
    27     3  2013   172    2     257.6    257.6    1.20    257.6     532.8     406.8     325.5     264.5     178.0     144.0
    28     3  2013   173    2     254.0    254.0    1.20    254.0     532.8     406.8     332.0     270.0     180.7     144.0
    29     3  2013   174    2     251.3    251.3    1.20    251.3     532.8     406.8     321.7     261.4     176.4     144.0
    30     3  2013   175    2     248.3    248.3    1.20    248.3     532.8     406.8     326.4     265.3     178.3     144.0
    31     3  2013   176    2     246.2    246.2    1.20    246.2     532.8     406.8     314.3     255.2     173.3     144.0
     1     4  2013   177    2     243.3    243.3    1.20    243.3     532.8     406.8     327.3     266.1     178.7     144.0
     2     4  2013   178    2     241.2    241.2    1.20    241.2     532.8     406.8     317.1     257.5     174.4     144.0
     3     4  2013   179    3     238.7    238.7    1.20    238.7     532.8     406.8     322.7     262.2     176.8     144.0
     4     4  2013   180    3     239.1    239.1    1.20    239.1     532.8     406.8     308.7     250.5     170.9     144.0
     5     4  2013   181    3     239.0    239.0    1.20    239.0     532.8     406.8     318.0     258.3     174.8     144.0
     6     4  2013   182    3     236.7    236.7    1.20    236.7     532.8     406.8     320.8     260.6     176.0     144.0
     7     4  2013   183    3     234.2    234.2    1.20    234.2     532.8     406.8     325.5     264.5     178.0     144.0
     8     4  2013   184    3     232.0    232.0    1.20    232.0     532.8     406.8     320.8     260.6     176.0     144.0
     9     4  2013   185    3     229.6    229.6    1.20    229.6     532.8     406.8     327.3     266.1     178.7     144.0
    10     4  2013   186    3     227.3    227.3    1.20    227.3     532.8     406.8     323.6     262.9     177.2     144.0
    11     4  2013   187    3     224.8    224.8    1.20    224.8     532.8     406.8     331.0     269.2     180.3     144.0
    12     4  2013   188    3     222.4    222.4    1.20    222.4     532.8     406.8     333.8     271.5     181.5     144.0
    13     4  2013   189    3     220.0    220.0    1.20    220.0     532.8     406.8     336.6     273.8     182.6     144.0
    14     4  2013   190    3     217.6    217.6    1.20    217.6     532.8     406.8     345.0     280.8     186.2     144.0
    15     4  2013   191    3     215.3    215.3    1.20    215.3     532.8     406.8     338.5     275.4     183.4     144.0
    16     4  2013   192    3     213.5    213.5    1.20    213.5     532.8     406.8     343.1     279.3     185.4     144.0
    17     4  2013   193    4     211.4    211.4    1.20    211.4     532.8     406.8     336.6     273.8     182.6     144.0
    18     4  2013   194    4     210.1    210.1    1.20    210.1     532.8     406.8     332.9     270.7     181.1     144.0
    19     4  2013   195    4     278.9    278.9    1.20    278.9     532.8     406.8     310.6     252.1     171.7     144.0
    20     4  2013   196    4     277.7    277.7    1.20    277.7     532.8     406.8     306.9     248.9     170.2     144.0
    21     4  2013   197    4     276.0    276.0    1.20    276.0     532.8     406.8     310.6     252.1     171.7     144.0
    22     4  2013   198    4     276.5    276.5    1.20    276.5     532.8     406.8     307.8     249.7     170.5     144.0
    23     4  2013   199    4     273.7    273.7    1.20    273.7     532.8     406.8     321.7     261.4     176.4     144.0
    24     4  2013   200    4     269.9    269.9    1.20    269.9     532.8     406.8     332.0     270.0     180.7     144.0
    25     4  2013   201    4     265.8    265.8    1.20    265.8     532.8     406.8     337.5     274.6     183.0     144.0
    26     4  2013   202    4     261.6    261.6    1.20    261.6     532.8     406.8     340.3     277.0     184.2     144.0
    27     4  2013   203    4     257.4    257.4    1.20    257.4     532.8     406.8     343.1     279.3     185.4     144.0
    28     4  2013   204    4     254.6    254.6    1.20    254.6     532.8     406.8     322.7     262.2     176.8     144.0
    29     4  2013   205    4     258.3    258.3    1.20    258.3     532.8     406.8     313.4     254.4     172.9     144.0
    30     4  2013   206    4     255.3    255.3    1.20    255.3     532.8     406.8     332.9     270.7     181.1     144.0
     1     5  2013   207    4     251.4    251.4    1.20    251.4     532.8     406.8     327.3     266.1     178.7     144.0
     2     5  2013   208   -9     250.0    250.0    1.20    250.0     532.8     406.8     327.3     277.0     178.7     144.0
     3     5  2013    -9    0     249.6    249.6    1.20    249.6     532.8     406.8     327.3     273.8     178.7     144.0
     4     5  2013    -9    0     249.4    249.4    1.20    249.4     532.8     406.8     327.3     258.3     178.7     144.0
     5     5  2013    -9    0     251.1    251.1    1.20    251.1     532.8     406.8     327.3     259.8     178.7     144.0
     6     5  2013    -9    0     254.9    254.9    1.20    254.9     532.8     406.8     327.3     251.3     178.7     144.0
     7     5  2013    -9    0     322.3    322.3    1.20    322.3     532.8     406.8     327.3     251.3     178.7     144.0
     8     5  2013    -9    0     321.7    321.7    1.20    321.7     532.8     406.8     327.3     252.1     178.7     144.0
     9     5  2013    -9    0     320.7    320.7    1.20    320.7     532.8     406.8     327.3     266.8     178.7     144.0
    10     5  2013    -9    0     319.5    319.5    1.20    319.5     532.8     406.8     327.3     277.0     178.7     144.0
    11     5  2013    -9    0     318.2    318.2    1.20    318.2     532.8     406.8     327.3     288.6     178.7     144.0
    12     5  2013    -9    0     317.1    317.1    1.20    317.1     532.8     406.8     327.3     284.0     178.7     144.0
    13     5  2013    -9    0     316.3    316.3    1.20    316.3     532.8     406.8     327.3     276.2     178.7     144.0
    14     5  2013    -9    0     315.9    315.9    1.20    315.9     532.8     406.8     327.3     258.3     178.7     144.0
    15     5  2013    -9    0     316.6    316.6    1.20    316.6     532.8     406.8     327.3     261.4     178.7     144.0
    16     5  2013    -9    0     321.5    321.5    1.20    321.5     532.8     406.8     327.3     255.2     178.7     144.0
    17     5  2013    -9    0     342.1    342.1    1.20    342.1     532.8     406.8     327.3     251.3     178.7     144.0
    18     5  2013    -9    0     341.1    341.1    1.20    341.1     532.8     406.8     327.3     273.1     178.7     144.0
    19     5  2013    -9    0     339.7    339.7    1.20    339.7     532.8     406.8     327.3     272.3     178.7     144.0
    20     5  2013    -9    0     338.2    338.2    1.20    338.2     532.8     406.8     327.3     281.6     178.7     144.0
    21     5  2013    -9    0     336.9    336.9    1.20    336.9     532.8     406.8     327.3     279.3     178.7     144.0
    22     5  2013    -9    0     335.7    335.7    1.20    335.7     532.8     406.8     327.3     281.6     178.7     144.0
    23     5  2013    -9    0     334.8    334.8    1.20    334.8     532.8     406.8     327.3     277.7     178.7     144.0
    24     5  2013    -9    0     346.9    346.9    1.20    346.9     532.8     406.8     327.3     262.2     178.7     144.0
    25     5  2013    -9    0     429.2    429.2    1.20    429.2     532.8     406.8     327.3     252.8     178.7     144.0
    26     5  2013    -9    0     472.1    472.1    1.20    472.1     532.8     406.8     327.3     261.4     178.7     144.0
    27     5  2013    -9    0     448.1    448.1    1.20    448.1     532.8     406.8     327.3     276.2     178.7     144.0
    28     5  2013    -9    0     432.0    432.0    1.20    432.0     532.8     406.8     327.3     258.3     178.7     144.0
    29     5  2013    -9    0     431.9    431.9    1.20    431.9     532.8     406.8     327.3     262.2     178.7     144.0
    30     5  2013    -9    0     424.3    424.3    1.20    424.3     532.8     406.8     327.3     256.7     178.7     144.0
    31     5  2013    -9    0     417.3    417.3    1.20    417.3     532.8     406.8     327.3     259.1     178.7     144.0
     1     6  2013    -9    0     410.8    410.8    1.20    410.8     532.8     406.8     327.3     279.3     178.7     144.0
     2     6  2013    -9    0     406.0    406.0    1.20    406.0     532.8     406.8     327.3     283.2     178.7     144.0
     3     6  2013    -9    0     403.1    403.1    0.00     -9.9      -9.9      -9.9      -9.9      -9.9      -9.9      -9.9
     4     6  2013    -9    0     398.3    398.3    0.00     -9.9      -9.9      -9.9      -9.9      -9.9      -9.9      -9.9
     5     6  2013    -9    0     394.9    394.9    0.00     -9.9      -9.9      -9.9      -9.9      -9.9      -9.9      -9.9
     6     6  2013    -9    0     392.6    392.6    0.00     -9.9      -9.9      -9.9      -9.9      -9.9      -9.9      -9.9
     7     6  2013    -9    0     390.6    390.6    0.00     -9.9      -9.9      -9.9      -9.9      -9.9      -9.9      -9.9
     8     6  2013    -9    0     389.4    389.4    0.00     -9.9      -9.9      -9.9      -9.9      -9.9      -9.9      -9.9
     9     6  2013    -9    0     398.3    398.3    0.00     -9.9      -9.9      -9.9      -9.9      -9.9      -9.9      -9.9
    10     6  2013    -9    0     394.9    394.9    0.00     -9.9      -9.9      -9.9      -9.9      -9.9      -9.9      -9.9
    11     6  2013    -9    0     392.4    392.4    0.00     -9.9      -9.9      -9.9      -9.9      -9.9      -9.9      -9.9
    12     6  2013    -9    0     390.5    390.5    0.00     -9.9      -9.9      -9.9      -9.9      -9.9      -9.9      -9.9
    13     6  2013    -9    0     388.7    388.7    0.00     -9.9      -9.9      -9.9      -9.9      -9.9      -9.9      -9.9
    14     6  2013    -9    0     387.7    387.7    0.00     -9.9      -9.9      -9.9      -9.9      -9.9      -9.9      -9.9
    15     6  2013    -9    0     386.5    386.5    0.00     -9.9      -9.9      -9.9      -9.9      -9.9      -9.9      -9.9
    16     6  2013    -9    0     385.8    385.8    0.00     -9.9      -9.9      -9.9      -9.9      -9.9      -9.9      -9.9
    17     6  2013    -9    0     384.9    384.9    0.00     -9.9      -9.9      -9.9      -9.9      -9.9      -9.9      -9.9
    18     6  2013    -9    0     384.1    384.1    0.00     -9.9      -9.9      -9.9      -9.9      -9.9      -9.9      -9.9
    19     6  2013    -9    0     383.6    383.6    0.00     -9.9      -9.9      -9.9      -9.9      -9.9      -9.9      -9.9
    20     6  2013    -9    0     383.1    383.1    0.00     -9.9      -9.9      -9.9      -9.9      -9.9      -9.9      -9.9
