AquaCrop 4.0 (June 2012) - Output created on (date) : 11/13/2015   at (time) : 4:33:04 PM
Salt balance for soil profile (Total layer: 0.00 - 1.20 m) and soil salinity in root zone (Z)

   Day Month  Year   DAP Stage   SaltIn    SaltOut   SaltUp    SaltTot    SaltZ     Z       ECe    ECsw   StSalt  Zgwt    ECgw
                                 ton/ha    ton/ha    ton/ha    ton/ha    ton/ha     m      dS/m    dS/m      %     m      dS/m
     1     9  2012    -9    0     0.000     0.000     0.000     0.000    -9.000    0.00   -9.00   -9.00      0    2.50    0.00
     2     9  2012    -9    0     0.000     0.000     0.000     0.000    -9.000    0.00   -9.00   -9.00      0    2.50    0.00
     3     9  2012    -9    0     0.000     0.000     0.000     0.000    -9.000    0.00   -9.00   -9.00      0    2.50    0.00
     4     9  2012    -9    0     0.000     0.000     0.000     0.000    -9.000    0.00   -9.00   -9.00      0    2.50    0.00
     5     9  2012    -9    0     0.000     0.000     0.000     0.000    -9.000    0.00   -9.00   -9.00      0    2.50    0.00
     6     9  2012    -9    0     0.000     0.000     0.000     0.000    -9.000    0.00   -9.00   -9.00      0    2.50    0.00
     7     9  2012    -9    0     0.000     0.000     0.000     0.000    -9.000    0.00   -9.00   -9.00      0    2.50    0.00
     8     9  2012    -9    0     0.000     0.000     0.000     0.000    -9.000    0.00   -9.00   -9.00      0    2.50    0.00
     9     9  2012    -9    0     0.000     0.000     0.000     0.000    -9.000    0.00   -9.00   -9.00      0    2.50    0.00
    10     9  2012    -9    0     0.000     0.000     0.000     0.000    -9.000    0.00   -9.00   -9.00      0    2.50    0.00
    11     9  2012    -9    0     0.000     0.000     0.000     0.000    -9.000    0.00   -9.00   -9.00      0    2.50    0.00
    12     9  2012    -9    0     0.000     0.000     0.000     0.000    -9.000    0.00   -9.00   -9.00      0    2.50    0.00
    13     9  2012    -9    0     0.000     0.000     0.000     0.000    -9.000    0.00   -9.00   -9.00      0    2.50    0.00
    14     9  2012    -9    0     0.000     0.000     0.000     0.000    -9.000    0.00   -9.00   -9.00      0    2.50    0.00
    15     9  2012    -9    0     0.000     0.000     0.000     0.000    -9.000    0.00   -9.00   -9.00      0    2.50    0.00
    16     9  2012    -9    0     0.000     0.000     0.000     0.000    -9.000    0.00   -9.00   -9.00      0    2.50    0.00
    17     9  2012    -9    0     0.000     0.000     0.000     0.000    -9.000    0.00   -9.00   -9.00      0    2.50    0.00
    18     9  2012    -9    0     0.000     0.000     0.000     0.000    -9.000    0.00   -9.00   -9.00      0    2.50    0.00
    19     9  2012    -9    0     0.000     0.000     0.000     0.000    -9.000    0.00   -9.00   -9.00      0    2.50    0.00
    20     9  2012    -9    0     0.000     0.000     0.000     0.000    -9.000    0.00   -9.00   -9.00      0    2.50    0.00
    21     9  2012    -9    0     0.000     0.000     0.000     0.000    -9.000    0.00   -9.00   -9.00      0    2.50    0.00
    22     9  2012    -9    0     0.000     0.000     0.000     0.000    -9.000    0.00   -9.00   -9.00      0    2.50    0.00
    23     9  2012    -9    0     0.000     0.000     0.000     0.000    -9.000    0.00   -9.00   -9.00      0    2.50    0.00
    24     9  2012    -9    0     0.000     0.000     0.000     0.000    -9.000    0.00   -9.00   -9.00      0    2.50    0.00
    25     9  2012    -9    0     0.000     0.000     0.000     0.000    -9.000    0.00   -9.00   -9.00      0    2.50    0.00
    26     9  2012    -9    0     0.000     0.000     0.000     0.000    -9.000    0.00   -9.00   -9.00      0    2.50    0.00
    27     9  2012    -9    0     0.000     0.000     0.000     0.000    -9.000    0.00   -9.00   -9.00      0    2.50    0.00
    28     9  2012    -9    0     0.000     0.000     0.000     0.000    -9.000    0.00   -9.00   -9.00      0    2.50    0.00
    29     9  2012    -9    0     0.000     0.000     0.000     0.000    -9.000    0.00   -9.00   -9.00      0    2.50    0.00
    30     9  2012    -9    0     0.000     0.000     0.000     0.000    -9.000    0.00   -9.00   -9.00      0    2.50    0.00
     1    10  2012    -9    0     0.000     0.000     0.000     0.000    -9.000    0.00   -9.00   -9.00      0    2.50    0.00
     2    10  2012    -9    0     0.000     0.000     0.000     0.000    -9.000    0.00   -9.00   -9.00      0    2.50    0.00
     3    10  2012    -9    0     0.000     0.000     0.000     0.000    -9.000    0.00   -9.00   -9.00      0    2.50    0.00
     4    10  2012    -9    0     0.000     0.000     0.000     0.000    -9.000    0.00   -9.00   -9.00      0    2.50    0.00
     5    10  2012    -9    0     0.000     0.000     0.000     0.000    -9.000    0.00   -9.00   -9.00      0    2.50    0.00
     6    10  2012    -9    0     0.000     0.000     0.000     0.000    -9.000    0.00   -9.00   -9.00      0    2.50    0.00
     7    10  2012     1    1     0.000     0.000     0.000     0.000     0.000    0.30    0.00    0.00      0    2.50    0.00
     8    10  2012     2    1     0.000     0.000     0.000     0.000     0.000    0.30    0.00    0.00      0    2.50    0.00
     9    10  2012     3    1     0.000     0.000     0.000     0.000     0.000    0.30    0.00    0.00      0    2.50    0.00
    10    10  2012     4    1     0.000     0.000     0.000     0.000     0.000    0.34    0.00    0.00      0    2.50    0.00
    11    10  2012     5    1     0.000     0.000     0.000     0.000     0.000    0.38    0.00    0.00      0    2.50    0.00
    12    10  2012     6    2     0.000     0.000     0.000     0.000     0.000    0.43    0.00    0.00      0    2.50    0.00
    13    10  2012     7    2     0.000     0.000     0.000     0.000     0.000    0.47    0.00    0.00      0    2.50    0.00
    14    10  2012     8    2     0.000     0.000     0.000     0.000     0.000    0.50    0.00    0.00      0    2.50    0.00
    15    10  2012     9    2     0.000     0.000     0.000     0.000     0.000    0.53    0.00    0.00      0    2.50    0.00
    16    10  2012    10    2     0.000     0.000     0.000     0.000     0.000    0.56    0.00    0.00      0    2.50    0.00
    17    10  2012    11    2     0.000     0.000     0.000     0.000     0.000    0.58    0.00    0.00      0    2.50    0.00
    18    10  2012    12    2     0.000     0.000     0.000     0.000     0.000    0.59    0.00    0.00      0    2.50    0.00
    19    10  2012    13    2     0.000     0.000     0.000     0.000     0.000    0.62    0.00    0.00      0    2.50    0.00
    20    10  2012    14    2     0.000     0.000     0.000     0.000     0.000    0.64    0.00    0.00      0    2.50    0.00
    21    10  2012    15    2     0.000     0.000     0.000     0.000     0.000    0.66    0.00    0.00      0    2.50    0.00
    22    10  2012    16    2     0.000     0.000     0.000     0.000     0.000    0.68    0.00    0.00      0    2.50    0.00
    23    10  2012    17    2     0.000     0.000     0.000     0.000     0.000    0.69    0.00    0.00      0    2.50    0.00
    24    10  2012    18    2     0.000     0.000     0.000     0.000     0.000    0.71    0.00    0.00      0    2.50    0.00
    25    10  2012    19    2     0.000     0.000     0.000     0.000     0.000    0.73    0.00    0.00      0    2.50    0.00
    26    10  2012    20    2     0.000     0.000     0.000     0.000     0.000    0.76    0.00    0.00      0    2.50    0.00
    27    10  2012    21    2     0.000     0.000     0.000     0.000     0.000    0.78    0.00    0.00      0    2.50    0.00
    28    10  2012    22    2     0.000     0.000     0.000     0.000     0.000    0.79    0.00    0.00      0    2.50    0.00
    29    10  2012    23    2     0.000     0.000     0.000     0.000     0.000    0.81    0.00    0.00      0    2.50    0.00
    30    10  2012    24    2     0.000     0.000     0.000     0.000     0.000    0.83    0.00    0.00      0    2.50    0.00
    31    10  2012    25    2     0.000     0.000     0.000     0.000     0.000    0.84    0.00    0.00      0    2.50    0.00
     1    11  2012    26    2     0.000     0.000     0.000     0.000     0.000    0.86    0.00    0.00      0    2.50    0.00
     2    11  2012    27    2     0.000     0.000     0.000     0.000     0.000    0.87    0.00    0.00      0    2.50    0.00
     3    11  2012    28    2     0.000     0.000     0.000     0.000     0.000    0.89    0.00    0.00      0    2.50    0.00
     4    11  2012    29    2     0.000     0.000     0.000     0.000     0.000    0.89    0.00    0.00      0    2.50    0.00
     5    11  2012    30    2     0.000     0.000     0.000     0.000     0.000    0.90    0.00    0.00      0    2.50    0.00
     6    11  2012    31    2     0.000     0.000     0.000     0.000     0.000    0.91    0.00    0.00      0    2.50    0.00
     7    11  2012    32    2     0.000     0.000     0.000     0.000     0.000    0.92    0.00    0.00      0    2.50    0.00
     8    11  2012    33    2     0.000     0.000     0.000     0.000     0.000    0.93    0.00    0.00      0    2.50    0.00
     9    11  2012    34    2     0.000     0.000     0.000     0.000     0.000    0.94    0.00    0.00      0    2.50    0.00
    10    11  2012    35    2     0.000     0.000     0.000     0.000     0.000    0.95    0.00    0.00      0    2.50    0.00
    11    11  2012    36    2     0.000     0.000     0.000     0.000     0.000    0.95    0.00    0.00      0    2.50    0.00
    12    11  2012    37    2     0.000     0.000     0.000     0.000     0.000    0.96    0.00    0.00      0    2.50    0.00
    13    11  2012    38    2     0.000     0.000     0.000     0.000     0.000    0.97    0.00    0.00      0    2.50    0.00
    14    11  2012    39    2     0.000     0.000     0.000     0.000     0.000    0.98    0.00    0.00      0    2.50    0.00
    15    11  2012    40    2     0.000     0.000     0.000     0.000     0.000    0.99    0.00    0.00      0    2.50    0.00
    16    11  2012    41    2     0.000     0.000     0.000     0.000     0.000    1.00    0.00    0.00      0    2.50    0.00
    17    11  2012    42    2     0.000     0.000     0.000     0.000     0.000    1.01    0.00    0.00      0    2.50    0.00
    18    11  2012    43    2     0.000     0.000     0.000     0.000     0.000    1.02    0.00    0.00      0    2.50    0.00
    19    11  2012    44    2     0.000     0.000     0.000     0.000     0.000    1.03    0.00    0.00      0    2.50    0.00
    20    11  2012    45    2     0.000     0.000     0.000     0.000     0.000    1.04    0.00    0.00      0    2.50    0.00
    21    11  2012    46    2     0.000     0.000     0.000     0.000     0.000    1.05    0.00    0.00      0    2.50    0.00
    22    11  2012    47    2     0.000     0.000     0.000     0.000     0.000    1.06    0.00    0.00      0    2.50    0.00
    23    11  2012    48    2     0.000     0.000     0.000     0.000     0.000    1.07    0.00    0.00      0    2.50    0.00
    24    11  2012    49    2     0.000     0.000     0.000     0.000     0.000    1.07    0.00    0.00      0    2.50    0.00
    25    11  2012    50    2     0.000     0.000     0.000     0.000     0.000    1.08    0.00    0.00      0    2.50    0.00
    26    11  2012    51    2     0.000     0.000     0.000     0.000     0.000    1.08    0.00    0.00      0    2.50    0.00
    27    11  2012    52    2     0.000     0.000     0.000     0.000     0.000    1.08    0.00    0.00      0    2.50    0.00
    28    11  2012    53    2     0.000     0.000     0.000     0.000     0.000    1.09    0.00    0.00      0    2.50    0.00
    29    11  2012    54    2     0.000     0.000     0.000     0.000     0.000    1.09    0.00    0.00      0    2.50    0.00
    30    11  2012    55    2     0.000     0.000     0.000     0.000     0.000    1.09    0.00    0.00      0    2.50    0.00
     1    12  2012    56    2     0.000     0.000     0.000     0.000     0.000    1.09    0.00    0.00      0    2.50    0.00
     2    12  2012    57    2     0.000     0.000     0.000     0.000     0.000    1.09    0.00    0.00      0    2.50    0.00
     3    12  2012    58    2     0.000     0.000     0.000     0.000     0.000    1.10    0.00    0.00      0    2.50    0.00
     4    12  2012    59    2     0.000     0.000     0.000     0.000     0.000    1.10    0.00    0.00      0    2.50    0.00
     5    12  2012    60    2     0.000     0.000     0.000     0.000     0.000    1.11    0.00    0.00      0    2.50    0.00
     6    12  2012    61    2     0.000     0.000     0.000     0.000     0.000    1.11    0.00    0.00      0    2.50    0.00
     7    12  2012    62    2     0.000     0.000     0.000     0.000     0.000    1.12    0.00    0.00      0    2.50    0.00
     8    12  2012    63    2     0.000     0.000     0.000     0.000     0.000    1.12    0.00    0.00      0    2.50    0.00
     9    12  2012    64    2     0.000     0.000     0.000     0.000     0.000    1.12    0.00    0.00      0    2.50    0.00
    10    12  2012    65    2     0.000     0.000     0.000     0.000     0.000    1.12    0.00    0.00      0    2.50    0.00
    11    12  2012    66    2     0.000     0.000     0.000     0.000     0.000    1.12    0.00    0.00      0    2.50    0.00
    12    12  2012    67    2     0.000     0.000     0.000     0.000     0.000    1.12    0.00    0.00      0    2.50    0.00
    13    12  2012    68    2     0.000     0.000     0.000     0.000     0.000    1.12    0.00    0.00      0    2.50    0.00
    14    12  2012    69    2     0.000     0.000     0.000     0.000     0.000    1.13    0.00    0.00      0    2.50    0.00
    15    12  2012    70    2     0.000     0.000     0.000     0.000     0.000    1.13    0.00    0.00      0    2.50    0.00
    16    12  2012    71    2     0.000     0.000     0.000     0.000     0.000    1.13    0.00    0.00      0    2.50    0.00
    17    12  2012    72    2     0.000     0.000     0.000     0.000     0.000    1.13    0.00    0.00      0    2.50    0.00
    18    12  2012    73    2     0.000     0.000     0.000     0.000     0.000    1.14    0.00    0.00      0    2.50    0.00
    19    12  2012    74    2     0.000     0.000     0.000     0.000     0.000    1.14    0.00    0.00      0    2.50    0.00
    20    12  2012    75    2     0.000     0.000     0.000     0.000     0.000    1.14    0.00    0.00      0    2.50    0.00
    21    12  2012    76    2     0.000     0.000     0.000     0.000     0.000    1.14    0.00    0.00      0    2.50    0.00
    22    12  2012    77    2     0.000     0.000     0.000     0.000     0.000    1.14    0.00    0.00      0    2.50    0.00
    23    12  2012    78    2     0.000     0.000     0.000     0.000     0.000    1.14    0.00    0.00      0    2.50    0.00
    24    12  2012    79    2     0.000     0.000     0.000     0.000     0.000    1.14    0.00    0.00      0    2.50    0.00
    25    12  2012    80    2     0.000     0.000     0.000     0.000     0.000    1.14    0.00    0.00      0    2.50    0.00
    26    12  2012    81    2     0.000     0.000     0.000     0.000     0.000    1.14    0.00    0.00      0    2.50    0.00
    27    12  2012    82    2     0.000     0.000     0.000     0.000     0.000    1.14    0.00    0.00      0    2.50    0.00
    28    12  2012    83    2     0.000     0.000     0.000     0.000     0.000    1.14    0.00    0.00      0    2.50    0.00
    29    12  2012    84    2     0.000     0.000     0.000     0.000     0.000    1.14    0.00    0.00      0    2.50    0.00
    30    12  2012    85    2     0.000     0.000     0.000     0.000     0.000    1.14    0.00    0.00      0    2.50    0.00
    31    12  2012    86    2     0.000     0.000     0.000     0.000     0.000    1.14    0.00    0.00      0    2.50    0.00
     1     1  2013    87    2     0.000     0.000     0.000     0.000     0.000    1.14    0.00    0.00      0    2.50    0.00
     2     1  2013    88    2     0.000     0.000     0.000     0.000     0.000    1.14    0.00    0.00      0    2.50    0.00
     3     1  2013    89    2     0.000     0.000     0.000     0.000     0.000    1.14    0.00    0.00      0    2.50    0.00
     4     1  2013    90    2     0.000     0.000     0.000     0.000     0.000    1.14    0.00    0.00      0    2.50    0.00
     5     1  2013    91    2     0.000     0.000     0.000     0.000     0.000    1.14    0.00    0.00      0    2.50    0.00
     6     1  2013    92    2     0.000     0.000     0.000     0.000     0.000    1.14    0.00    0.00      0    2.50    0.00
     7     1  2013    93    2     0.000     0.000     0.000     0.000     0.000    1.14    0.00    0.00      0    2.50    0.00
     8     1  2013    94    2     0.000     0.000     0.000     0.000     0.000    1.14    0.00    0.00      0    2.50    0.00
     9     1  2013    95    2     0.000     0.000     0.000     0.000     0.000    1.14    0.00    0.00      0    2.50    0.00
    10     1  2013    96    2     0.000     0.000     0.000     0.000     0.000    1.14    0.00    0.00      0    2.50    0.00
    11     1  2013    97    2     0.000     0.000     0.000     0.000     0.000    1.15    0.00    0.00      0    2.50    0.00
    12     1  2013    98    2     0.000     0.000     0.000     0.000     0.000    1.15    0.00    0.00      0    2.50    0.00
    13     1  2013    99    2     0.000     0.000     0.000     0.000     0.000    1.15    0.00    0.00      0    2.50    0.00
    14     1  2013   100    2     0.000     0.000     0.000     0.000     0.000    1.15    0.00    0.00      0    2.50    0.00
    15     1  2013   101    2     0.000     0.000     0.000     0.000     0.000    1.15    0.00    0.00      0    2.50    0.00
    16     1  2013   102    2     0.000     0.000     0.000     0.000     0.000    1.16    0.00    0.00      0    2.50    0.00
    17     1  2013   103    2     0.000     0.000     0.000     0.000     0.000    1.16    0.00    0.00      0    2.50    0.00
    18     1  2013   104    2     0.000     0.000     0.000     0.000     0.000    1.16    0.00    0.00      0    2.50    0.00
    19     1  2013   105    2     0.000     0.000     0.000     0.000     0.000    1.16    0.00    0.00      0    2.50    0.00
    20     1  2013   106    2     0.000     0.000     0.000     0.000     0.000    1.16    0.00    0.00      0    2.50    0.00
    21     1  2013   107    2     0.000     0.000     0.000     0.000     0.000    1.17    0.00    0.00      0    2.50    0.00
    22     1  2013   108    2     0.000     0.000     0.000     0.000     0.000    1.17    0.00    0.00      0    2.50    0.00
    23     1  2013   109    2     0.000     0.000     0.000     0.000     0.000    1.18    0.00    0.00      0    2.50    0.00
    24     1  2013   110    2     0.000     0.000     0.000     0.000     0.000    1.18    0.00    0.00      0    2.50    0.00
    25     1  2013   111    2     0.000     0.000     0.000     0.000     0.000    1.19    0.00    0.00      0    2.50    0.00
    26     1  2013   112    2     0.000     0.000     0.000     0.000     0.000    1.19    0.00    0.00      0    2.50    0.00
    27     1  2013   113    2     0.000     0.000     0.000     0.000     0.000    1.20    0.00    0.00      0    2.50    0.00
    28     1  2013   114    2     0.000     0.000     0.000     0.000     0.000    1.20    0.00    0.00      0    2.50    0.00
    29     1  2013   115    2     0.000     0.000     0.000     0.000     0.000    1.20    0.00    0.00      0    2.50    0.00
    30     1  2013   116    2     0.000     0.000     0.000     0.000     0.000    1.20    0.00    0.00      0    2.50    0.00
    31     1  2013   117    2     0.000     0.000     0.000     0.000     0.000    1.20    0.00    0.00      0    2.50    0.00
     1     2  2013   118    2     0.000     0.000     0.000     0.000     0.000    1.20    0.00    0.00      0    2.50    0.00
     2     2  2013   119    2     0.000     0.000     0.000     0.000     0.000    1.20    0.00    0.00      0    2.50    0.00
     3     2  2013   120    2     0.000     0.000     0.000     0.000     0.000    1.20    0.00    0.00      0    2.50    0.00
     4     2  2013   121    2     0.000     0.000     0.000     0.000     0.000    1.20    0.00    0.00      0    2.50    0.00
     5     2  2013   122    2     0.000     0.000     0.000     0.000     0.000    1.20    0.00    0.00      0    2.50    0.00
     6     2  2013   123    2     0.000     0.000     0.000     0.000     0.000    1.20    0.00    0.00      0    2.50    0.00
     7     2  2013   124    2     0.000     0.000     0.000     0.000     0.000    1.20    0.00    0.00      0    2.50    0.00
     8     2  2013   125    2     0.000     0.000     0.000     0.000     0.000    1.20    0.00    0.00      0    2.50    0.00
     9     2  2013   126    2     0.000     0.000     0.000     0.000     0.000    1.20    0.00    0.00      0    2.50    0.00
    10     2  2013   127    2     0.000     0.000     0.000     0.000     0.000    1.20    0.00    0.00      0    2.50    0.00
    11     2  2013   128    2     0.000     0.000     0.000     0.000     0.000    1.20    0.00    0.00      0    2.50    0.00
    12     2  2013   129    2     0.000     0.000     0.000     0.000     0.000    1.20    0.00    0.00      0    2.50    0.00
    13     2  2013   130    2     0.000     0.000     0.000     0.000     0.000    1.20    0.00    0.00      0    2.50    0.00
    14     2  2013   131    2     0.000     0.000     0.000     0.000     0.000    1.20    0.00    0.00      0    2.50    0.00
    15     2  2013   132    2     0.000     0.000     0.000     0.000     0.000    1.20    0.00    0.00      0    2.50    0.00
    16     2  2013   133    2     0.000     0.000     0.000     0.000     0.000    1.20    0.00    0.00      0    2.50    0.00
    17     2  2013   134    2     0.000     0.000     0.000     0.000     0.000    1.20    0.00    0.00      0    2.50    0.00
    18     2  2013   135    2     0.000     0.000     0.000     0.000     0.000    1.20    0.00    0.00      0    2.50    0.00
    19     2  2013   136    2     0.000     0.000     0.000     0.000     0.000    1.20    0.00    0.00      0    2.50    0.00
    20     2  2013   137    2     0.000     0.000     0.000     0.000     0.000    1.20    0.00    0.00      0    2.50    0.00
    21     2  2013   138    2     0.000     0.000     0.000     0.000     0.000    1.20    0.00    0.00      0    2.50    0.00
    22     2  2013   139    2     0.000     0.000     0.000     0.000     0.000    1.20    0.00    0.00      0    2.50    0.00
    23     2  2013   140    2     0.000     0.000     0.000     0.000     0.000    1.20    0.00    0.00      0    2.50    0.00
    24     2  2013   141    2     0.000     0.000     0.000     0.000     0.000    1.20    0.00    0.00      0    2.50    0.00
    25     2  2013   142    2     0.000     0.000     0.000     0.000     0.000    1.20    0.00    0.00      0    2.50    0.00
    26     2  2013   143    2     0.000     0.000     0.000     0.000     0.000    1.20    0.00    0.00      0    2.50    0.00
    27     2  2013   144    2     0.000     0.000     0.000     0.000     0.000    1.20    0.00    0.00      0    2.50    0.00
    28     2  2013   145    2     0.000     0.000     0.000     0.000     0.000    1.20    0.00    0.00      0    2.50    0.00
     1     3  2013   146    2     0.000     0.000     0.000     0.000     0.000    1.20    0.00    0.00      0    2.50    0.00
     2     3  2013   147    2     0.000     0.000     0.000     0.000     0.000    1.20    0.00    0.00      0    2.50    0.00
     3     3  2013   148    2     0.000     0.000     0.000     0.000     0.000    1.20    0.00    0.00      0    2.50    0.00
     4     3  2013   149    2     0.000     0.000     0.000     0.000     0.000    1.20    0.00    0.00      0    2.50    0.00
     5     3  2013   150    2     0.000     0.000     0.000     0.000     0.000    1.20    0.00    0.00      0    2.50    0.00
     6     3  2013   151    2     0.000     0.000     0.000     0.000     0.000    1.20    0.00    0.00      0    2.50    0.00
     7     3  2013   152    2     0.000     0.000     0.000     0.000     0.000    1.20    0.00    0.00      0    2.50    0.00
     8     3  2013   153    2     0.000     0.000     0.000     0.000     0.000    1.20    0.00    0.00      0    2.50    0.00
     9     3  2013   154    2     0.000     0.000     0.000     0.000     0.000    1.20    0.00    0.00      0    2.50    0.00
    10     3  2013   155    2     0.000     0.000     0.000     0.000     0.000    1.20    0.00    0.00      0    2.50    0.00
    11     3  2013   156    2     0.000     0.000     0.000     0.000     0.000    1.20    0.00    0.00      0    2.50    0.00
    12     3  2013   157    2     0.000     0.000     0.000     0.000     0.000    1.20    0.00    0.00      0    2.50    0.00
    13     3  2013   158    2     0.000     0.000     0.000     0.000     0.000    1.20    0.00    0.00      0    2.50    0.00
    14     3  2013   159    2     0.000     0.000     0.000     0.000     0.000    1.20    0.00    0.00      0    2.50    0.00
    15     3  2013   160    2     0.000     0.000     0.000     0.000     0.000    1.20    0.00    0.00      0    2.50    0.00
    16     3  2013   161    2     0.000     0.000     0.000     0.000     0.000    1.20    0.00    0.00      0    2.50    0.00
    17     3  2013   162    2     0.000     0.000     0.000     0.000     0.000    1.20    0.00    0.00      0    2.50    0.00
    18     3  2013   163    2     0.000     0.000     0.000     0.000     0.000    1.20    0.00    0.00      0    2.50    0.00
    19     3  2013   164    2     0.000     0.000     0.000     0.000     0.000    1.20    0.00    0.00      0    2.50    0.00
    20     3  2013   165    2     0.000     0.000     0.000     0.000     0.000    1.20    0.00    0.00      0    2.50    0.00
    21     3  2013   166    2     0.000     0.000     0.000     0.000     0.000    1.20    0.00    0.00      0    2.50    0.00
    22     3  2013   167    2     0.000     0.000     0.000     0.000     0.000    1.20    0.00    0.00      0    2.50    0.00
    23     3  2013   168    2     0.000     0.000     0.000     0.000     0.000    1.20    0.00    0.00      0    2.50    0.00
    24     3  2013   169    2     0.000     0.000     0.000     0.000     0.000    1.20    0.00    0.00      0    2.50    0.00
    25     3  2013   170    2     0.000     0.000     0.000     0.000     0.000    1.20    0.00    0.00      0    2.50    0.00
    26     3  2013   171    2     0.000     0.000     0.000     0.000     0.000    1.20    0.00    0.00      0    2.50    0.00
    27     3  2013   172    2     0.000     0.000     0.000     0.000     0.000    1.20    0.00    0.00      0    2.50    0.00
    28     3  2013   173    2     0.000     0.000     0.000     0.000     0.000    1.20    0.00    0.00      0    2.50    0.00
    29     3  2013   174    2     0.000     0.000     0.000     0.000     0.000    1.20    0.00    0.00      0    2.50    0.00
    30     3  2013   175    2     0.000     0.000     0.000     0.000     0.000    1.20    0.00    0.00      0    2.50    0.00
    31     3  2013   176    2     0.000     0.000     0.000     0.000     0.000    1.20    0.00    0.00      0    2.50    0.00
     1     4  2013   177    2     0.000     0.000     0.000     0.000     0.000    1.20    0.00    0.00      0    2.50    0.00
     2     4  2013   178    2     0.000     0.000     0.000     0.000     0.000    1.20    0.00    0.00      0    2.50    0.00
     3     4  2013   179    3     0.000     0.000     0.000     0.000     0.000    1.20    0.00    0.00      0    2.50    0.00
     4     4  2013   180    3     0.000     0.000     0.000     0.000     0.000    1.20    0.00    0.00      0    2.50    0.00
     5     4  2013   181    3     0.000     0.000     0.000     0.000     0.000    1.20    0.00    0.00      0    2.50    0.00
     6     4  2013   182    3     0.000     0.000     0.000     0.000     0.000    1.20    0.00    0.00      0    2.50    0.00
     7     4  2013   183    3     0.000     0.000     0.000     0.000     0.000    1.20    0.00    0.00      0    2.50    0.00
     8     4  2013   184    3     0.000     0.000     0.000     0.000     0.000    1.20    0.00    0.00      0    2.50    0.00
     9     4  2013   185    3     0.000     0.000     0.000     0.000     0.000    1.20    0.00    0.00      0    2.50    0.00
    10     4  2013   186    3     0.000     0.000     0.000     0.000     0.000    1.20    0.00    0.00      0    2.50    0.00
    11     4  2013   187    3     0.000     0.000     0.000     0.000     0.000    1.20    0.00    0.00      0    2.50    0.00
    12     4  2013   188    3     0.000     0.000     0.000     0.000     0.000    1.20    0.00    0.00      0    2.50    0.00
    13     4  2013   189    3     0.000     0.000     0.000     0.000     0.000    1.20    0.00    0.00      0    2.50    0.00
    14     4  2013   190    3     0.000     0.000     0.000     0.000     0.000    1.20    0.00    0.00      0    2.50    0.00
    15     4  2013   191    3     0.000     0.000     0.000     0.000     0.000    1.20    0.00    0.00      0    2.50    0.00
    16     4  2013   192    3     0.000     0.000     0.000     0.000     0.000    1.20    0.00    0.00      0    2.50    0.00
    17     4  2013   193    4     0.000     0.000     0.000     0.000     0.000    1.20    0.00    0.00      0    2.50    0.00
    18     4  2013   194    4     0.000     0.000     0.000     0.000     0.000    1.20    0.00    0.00      0    2.50    0.00
    19     4  2013   195    4     0.000     0.000     0.000     0.000     0.000    1.20    0.00    0.00      0    2.50    0.00
    20     4  2013   196    4     0.000     0.000     0.000     0.000     0.000    1.20    0.00    0.00      0    2.50    0.00
    21     4  2013   197    4     0.000     0.000     0.000     0.000     0.000    1.20    0.00    0.00      0    2.50    0.00
    22     4  2013   198    4     0.000     0.000     0.000     0.000     0.000    1.20    0.00    0.00      0    2.50    0.00
    23     4  2013   199    4     0.000     0.000     0.000     0.000     0.000    1.20    0.00    0.00      0    2.50    0.00
    24     4  2013   200    4     0.000     0.000     0.000     0.000     0.000    1.20    0.00    0.00      0    2.50    0.00
    25     4  2013   201    4     0.000     0.000     0.000     0.000     0.000    1.20    0.00    0.00      0    2.50    0.00
    26     4  2013   202    4     0.000     0.000     0.000     0.000     0.000    1.20    0.00    0.00      0    2.50    0.00
    27     4  2013   203    4     0.000     0.000     0.000     0.000     0.000    1.20    0.00    0.00      0    2.50    0.00
    28     4  2013   204    4     0.000     0.000     0.000     0.000     0.000    1.20    0.00    0.00      0    2.50    0.00
    29     4  2013   205    4     0.000     0.000     0.000     0.000     0.000    1.20    0.00    0.00      0    2.50    0.00
    30     4  2013   206    4     0.000     0.000     0.000     0.000     0.000    1.20    0.00    0.00      0    2.50    0.00
     1     5  2013   207    4     0.000     0.000     0.000     0.000     0.000    1.20    0.00    0.00      0    2.50    0.00
     2     5  2013   208   -9     0.000     0.000     0.000     0.000     0.000    1.20    0.00    0.00      0    2.50    0.00
     3     5  2013    -9    0     0.000     0.000     0.000     0.000     0.000    1.20    0.00    0.00      0    2.50    0.00
     4     5  2013    -9    0     0.000     0.000     0.000     0.000     0.000    1.20    0.00    0.00      0    2.50    0.00
     5     5  2013    -9    0     0.000     0.000     0.000     0.000     0.000    1.20    0.00    0.00      0    2.50    0.00
     6     5  2013    -9    0     0.000     0.000     0.000     0.000     0.000    1.20    0.00    0.00      0    2.50    0.00
     7     5  2013    -9    0     0.000     0.000     0.000     0.000     0.000    1.20    0.00    0.00      0    2.50    0.00
     8     5  2013    -9    0     0.000     0.000     0.000     0.000     0.000    1.20    0.00    0.00      0    2.50    0.00
     9     5  2013    -9    0     0.000     0.000     0.000     0.000     0.000    1.20    0.00    0.00      0    2.50    0.00
    10     5  2013    -9    0     0.000     0.000     0.000     0.000     0.000    1.20    0.00    0.00      0    2.50    0.00
    11     5  2013    -9    0     0.000     0.000     0.000     0.000     0.000    1.20    0.00    0.00      0    2.50    0.00
    12     5  2013    -9    0     0.000     0.000     0.000     0.000     0.000    1.20    0.00    0.00      0    2.50    0.00
    13     5  2013    -9    0     0.000     0.000     0.000     0.000     0.000    1.20    0.00    0.00      0    2.50    0.00
    14     5  2013    -9    0     0.000     0.000     0.000     0.000     0.000    1.20    0.00    0.00      0    2.50    0.00
    15     5  2013    -9    0     0.000     0.000     0.000     0.000     0.000    1.20    0.00    0.00      0    2.50    0.00
    16     5  2013    -9    0     0.000     0.000     0.000     0.000     0.000    1.20    0.00    0.00      0    2.50    0.00
    17     5  2013    -9    0     0.000     0.000     0.000     0.000     0.000    1.20    0.00    0.00      0    2.50    0.00
    18     5  2013    -9    0     0.000     0.000     0.000     0.000     0.000    1.20    0.00    0.00      0    2.50    0.00
    19     5  2013    -9    0     0.000     0.000     0.000     0.000     0.000    1.20    0.00    0.00      0    2.50    0.00
    20     5  2013    -9    0     0.000     0.000     0.000     0.000     0.000    1.20    0.00    0.00      0    2.50    0.00
    21     5  2013    -9    0     0.000     0.000     0.000     0.000     0.000    1.20    0.00    0.00      0    2.50    0.00
    22     5  2013    -9    0     0.000     0.000     0.000     0.000     0.000    1.20    0.00    0.00      0    2.50    0.00
    23     5  2013    -9    0     0.000     0.000     0.000     0.000     0.000    1.20    0.00    0.00      0    2.50    0.00
    24     5  2013    -9    0     0.000     0.000     0.000     0.000     0.000    1.20    0.00    0.00      0    2.50    0.00
    25     5  2013    -9    0     0.000     0.000     0.000     0.000     0.000    1.20    0.00    0.00      0    2.50    0.00
    26     5  2013    -9    0     0.000     0.000     0.000     0.000     0.000    1.20    0.00    0.00      0    2.50    0.00
    27     5  2013    -9    0     0.000     0.000     0.000     0.000     0.000    1.20    0.00    0.00      0    2.50    0.00
    28     5  2013    -9    0     0.000     0.000     0.000     0.000     0.000    1.20    0.00    0.00      0    2.50    0.00
    29     5  2013    -9    0     0.000     0.000     0.000     0.000     0.000    1.20    0.00    0.00      0    2.50    0.00
    30     5  2013    -9    0     0.000     0.000     0.000     0.000     0.000    1.20    0.00    0.00      0    2.50    0.00
    31     5  2013    -9    0     0.000     0.000     0.000     0.000     0.000    1.20    0.00    0.00      0    2.50    0.00
     1     6  2013    -9    0     0.000     0.000     0.000     0.000     0.000    1.20    0.00    0.00      0    2.50    0.00
     2     6  2013    -9    0     0.000     0.000     0.000     0.000     0.000    1.20    0.00    0.00      0    2.50    0.00
     3     6  2013    -9    0     0.000     0.000     0.000     0.000    -9.000    0.00   -9.00   -9.00      0    2.50    0.00
     4     6  2013    -9    0     0.000     0.000     0.000     0.000    -9.000    0.00   -9.00   -9.00      0    2.50    0.00
     5     6  2013    -9    0     0.000     0.000     0.000     0.000    -9.000    0.00   -9.00   -9.00      0    2.50    0.00
     6     6  2013    -9    0     0.000     0.000     0.000     0.000    -9.000    0.00   -9.00   -9.00      0    2.50    0.00
     7     6  2013    -9    0     0.000     0.000     0.000     0.000    -9.000    0.00   -9.00   -9.00      0    2.50    0.00
     8     6  2013    -9    0     0.000     0.000     0.000     0.000    -9.000    0.00   -9.00   -9.00      0    2.50    0.00
     9     6  2013    -9    0     0.000     0.000     0.000     0.000    -9.000    0.00   -9.00   -9.00      0    2.50    0.00
    10     6  2013    -9    0     0.000     0.000     0.000     0.000    -9.000    0.00   -9.00   -9.00      0    2.50    0.00
    11     6  2013    -9    0     0.000     0.000     0.000     0.000    -9.000    0.00   -9.00   -9.00      0    2.50    0.00
    12     6  2013    -9    0     0.000     0.000     0.000     0.000    -9.000    0.00   -9.00   -9.00      0    2.50    0.00
    13     6  2013    -9    0     0.000     0.000     0.000     0.000    -9.000    0.00   -9.00   -9.00      0    2.50    0.00
    14     6  2013    -9    0     0.000     0.000     0.000     0.000    -9.000    0.00   -9.00   -9.00      0    2.50    0.00
    15     6  2013    -9    0     0.000     0.000     0.000     0.000    -9.000    0.00   -9.00   -9.00      0    2.50    0.00
    16     6  2013    -9    0     0.000     0.000     0.000     0.000    -9.000    0.00   -9.00   -9.00      0    2.50    0.00
    17     6  2013    -9    0     0.000     0.000     0.000     0.000    -9.000    0.00   -9.00   -9.00      0    2.50    0.00
    18     6  2013    -9    0     0.000     0.000     0.000     0.000    -9.000    0.00   -9.00   -9.00      0    2.50    0.00
    19     6  2013    -9    0     0.000     0.000     0.000     0.000    -9.000    0.00   -9.00   -9.00      0    2.50    0.00
    20     6  2013    -9    0     0.000     0.000     0.000     0.000    -9.000    0.00   -9.00   -9.00      0    2.50    0.00
