AquaCrop 4.0 (June 2012) - Output created on (date) : 11/13/2015   at (time) : 4:33:04 PM
Soil Water balance

   Day Month  Year   DAP Stage     WCTot    Rain     Irri   Surf   Infilt   RO    Drain       CR    Zgwt       Ex       E     E/Ex    Trx       Tr  Tr/Trx    ETx      ET   ET/ETx
                                      mm      mm       mm     mm     mm     mm       mm       mm      m        mm       mm     %       mm       mm    %        mm      mm      %
     1     9  2012    -9    0      441.7    33.8      0.0    0.0   33.8    0.0      0.0      0.0    2.50      1.9      1.9   100      0.0      0.0   100      1.9     1.9    100
     2     9  2012    -9    0      430.7     0.9      0.0    0.0    0.9    0.0      8.4      0.0    2.50      3.9      3.5    92      0.0      0.0   100      3.9     3.5     92
     3     9  2012    -9    0      418.5     0.0      0.0    0.0    0.0    0.0      9.8      0.0    2.50      3.9      2.5    64      0.0      0.0   100      3.9     2.5     64
     4     9  2012    -9    0      410.0     0.0      0.0    0.0    0.0    0.0      6.4      0.0    2.50      4.1      2.0    50      0.0      0.0   100      4.1     2.0     50
     5     9  2012    -9    0      405.6     0.0      0.0    0.0    0.0    0.0      2.9      0.0    2.50      3.9      1.6    42      0.0      0.0   100      3.9     1.6     42
     6     9  2012    -9    0      403.0     0.0      0.0    0.0    0.0    0.0      1.1      0.0    2.50      4.1      1.5    36      0.0      0.0   100      4.1     1.5     36
     7     9  2012    -9    0      414.9    14.4      0.0    0.0   14.4    0.0      0.4      0.0    2.50      2.1      2.1   100      0.0      0.0   100      2.1     2.1    100
     8     9  2012    -9    0      450.7    38.2      0.0    0.0   38.2    0.0      0.6      0.0    2.50      1.8      1.8   100      0.0      0.0   100      1.8     1.8    100
     9     9  2012    -9    0      436.6     0.1      0.0    0.0    0.1    0.0     12.2      0.0    2.50      2.1      2.0    94      0.0      0.0   100      2.1     2.0     94
    10     9  2012    -9    0      440.3    18.7      0.0    0.0   18.7    0.0     13.2      0.0    2.50      1.9      1.9   100      0.0      0.0   100      1.9     1.9    100
    11     9  2012    -9    0      427.4     0.0      0.0    0.0    0.0    0.0     10.5      0.0    2.50      2.4      2.4   100      0.0      0.0   100      2.4     2.4    100
    12     9  2012    -9    0      416.8     0.0      0.0    0.0    0.0    0.0      7.9      0.0    2.50      2.6      2.6   100      0.0      0.0   100      2.6     2.6    100
    13     9  2012    -9    0      407.9     0.0      0.0    0.0    0.0    0.0      5.0      0.0    2.50      4.0      3.8    96      0.0      0.0   100      4.0     3.8     96
    14     9  2012    -9    0      402.9     0.0      0.0    0.0    0.0    0.0      2.4      0.0    2.50      3.7      2.6    71      0.0      0.0   100      3.7     2.6     71
    15     9  2012    -9    0      399.4     0.5      0.0    0.0    0.5    0.0      1.0      0.0    2.50      3.3      2.9    89      0.0      0.0   100      3.3     2.9     89
    16     9  2012    -9    0      398.8     1.4      0.0    0.0    1.4    0.0      0.4      0.0    2.50      1.8      1.7    95      0.0      0.0   100      1.8     1.7     95
    17     9  2012    -9    0      396.7     0.2      0.0    0.0    0.2    0.0      0.2      0.0    2.50      3.1      2.1    69      0.0      0.0   100      3.1     2.1     69
    18     9  2012    -9    0      394.6     0.0      0.0    0.0    0.0    0.0      0.1      0.0    2.50      3.9      2.0    52      0.0      0.0   100      3.9     2.0     52
    19     9  2012    -9    0      393.0     0.0      0.0    0.0    0.0    0.0      0.0      0.0    2.50      3.7      1.6    42      0.0      0.0   100      3.7     1.6     42
    20     9  2012    -9    0      392.8     1.1      0.0    0.0    1.1    0.0      0.0      0.0    2.50      1.7      1.3    79      0.0      0.0   100      1.7     1.3     79
    21     9  2012    -9    0      392.6     2.3      0.0    0.0    2.3    0.0      0.0      0.0    2.50      2.8      2.5    90      0.0      0.0   100      2.8     2.5     90
    22     9  2012    -9    0      392.0     0.0      0.0    0.0    0.0    0.0      0.0      0.0    2.50      1.8      0.6    35      0.0      0.0   100      1.8     0.6     35
    23     9  2012    -9    0      391.4     0.0      0.0    0.0    0.0    0.0      0.0      0.0    2.50      1.9      0.6    32      0.0      0.0   100      1.9     0.6     32
    24     9  2012    -9    0      390.8     0.0      0.0    0.0    0.0    0.0      0.0      0.0    2.50      2.0      0.6    30      0.0      0.0   100      2.0     0.6     30
    25     9  2012    -9    0      398.2     9.0      0.0    0.0    9.0    0.0      0.0      0.0    2.50      1.7      1.7   100      0.0      0.0   100      1.7     1.7    100
    26     9  2012    -9    0      396.1     0.0      0.0    0.0    0.0    0.0      0.0      0.0    2.50      2.1      2.1   100      0.0      0.0   100      2.1     2.1    100
    27     9  2012    -9    0      393.1     0.0      0.0    0.0    0.0    0.0      0.0      0.0    2.50      3.0      3.0   100      0.0      0.0   100      3.0     3.0    100
    28     9  2012    -9    0      390.7     0.0      0.0    0.0    0.0    0.0      0.0      0.0    2.50      3.0      2.5    84      0.0      0.0   100      3.0     2.5     84
    29     9  2012    -9    0      389.8     0.0      0.0    0.0    0.0    0.0      0.0      0.0    2.50      3.1      0.8    26      0.0      0.0   100      3.1     0.8     26
    30     9  2012    -9    0      389.1     0.0      0.0    0.0    0.0    0.0      0.0      0.0    2.50      3.0      0.7    24      0.0      0.0   100      3.0     0.7     24
     1    10  2012    -9    0      388.5     0.0      0.0    0.0    0.0    0.0      0.0      0.0    2.50      2.8      0.6    22      0.0      0.0   100      2.8     0.6     22
     2    10  2012    -9    0      395.0     8.0      0.0    0.0    8.0    0.0      0.0      0.0    2.50      1.5      1.5   100      0.0      0.0   100      1.5     1.5    100
     3    10  2012    -9    0      394.1     1.1      0.0    0.0    1.1    0.0      0.0      0.0    2.50      3.0      2.0    66      0.0      0.0   100      3.0     2.0     66
     4    10  2012    -9    0      393.4     0.0      0.0    0.0    0.0    0.0      0.0      0.0    2.50      1.9      0.8    41      0.0      0.0   100      1.9     0.8     41
     5    10  2012    -9    0      392.5     0.0      0.0    0.0    0.0    0.0      0.0      0.0    2.50      2.3      0.9    37      0.0      0.0   100      2.3     0.9     37
     6    10  2012    -9    0      392.0     0.0      0.0    0.0    0.0    0.0      0.0      0.0    2.50      1.5      0.5    34      0.0      0.0   100      1.5     0.5     34
     7    10  2012     1    1      391.5     0.0      0.0    0.0    0.0    0.0      0.0      0.0    2.50      1.3      0.4    32      0.0      0.0   100      1.3     0.4     32
     8    10  2012     2    1      393.0     2.7      0.0    0.0    2.7    0.0      0.0      0.0    2.50      1.2      1.2   100      0.0      0.0   100      1.2     1.2    100
     9    10  2012     3    1      392.2     0.3      0.0    0.0    0.3    0.0      0.0      0.0    2.50      2.6      1.1    43      0.0      0.0   100      2.6     1.1     43
    10    10  2012     4    1      391.4     0.0      0.0    0.0    0.0    0.0      0.0      0.0    2.50      2.4      0.8    32      0.0      0.0   100      2.4     0.8     32
    11    10  2012     5    1      391.0     0.0      0.0    0.0    0.0    0.0      0.0      0.0    2.50      1.2      0.4    30      0.0      0.0   100      1.2     0.4     31
    12    10  2012     6    2      390.6     0.0      0.0    0.0    0.0    0.0      0.0      0.0    2.50      1.2      0.3    28      0.0      0.0   100      1.2     0.4     31
    13    10  2012     7    2      389.9     0.0      0.0    0.0    0.0    0.0      0.0      0.0    2.50      2.3      0.6    27      0.1      0.1   100      2.3     0.7     30
    14    10  2012     8    2      389.5     0.0      0.0    0.0    0.0    0.0      0.0      0.0    2.50      1.5      0.4    25      0.1      0.1   100      1.5     0.4     29
    15    10  2012     9    2      389.1     0.0      0.0    0.0    0.0    0.0      0.0      0.0    2.50      1.3      0.3    23      0.1      0.1   100      1.4     0.4     28
    16    10  2012    10    2      391.0     4.5      0.0    0.0    4.5    0.0      0.0      0.0    2.50      2.3      2.3   100      0.2      0.2   100      2.6     2.6    100
    17    10  2012    11    2      388.9     0.0      0.0    0.0    0.0    0.0      0.0      0.0    2.50      1.9      1.9   100      0.2      0.2   100      2.2     2.2    100
    18    10  2012    12    2      388.3     0.0      0.0    0.0    0.0    0.0      0.0      0.0    2.50      1.3      0.4    35      0.2      0.2   100      1.4     0.6     43
    19    10  2012    13    2      387.8     0.0      0.0    0.0    0.0    0.0      0.0      0.0    2.50      1.4      0.3    20      0.2      0.2   100      1.6     0.5     32
    20    10  2012    14    2      387.1     0.0      0.0    0.0    0.0    0.0      0.0      0.0    2.50      1.5      0.3    19      0.3      0.3   100      1.9     0.6     34
    21    10  2012    15    2      386.6     0.0      0.0    0.0    0.0    0.0      0.0      0.0    2.50      1.2      0.2    18      0.4      0.4   100      1.6     0.6     37
    22    10  2012    16    2      385.6     0.0      0.0    0.0    0.0    0.0      0.0      0.0    2.50      1.6      0.3    17      0.6      0.6   100      2.3     0.9     40
    23    10  2012    17    2      387.0     2.4      0.0    0.0    2.4    0.0      0.0      0.0    2.50      0.7      0.7   100      0.3      0.3   100      1.0     1.0    100
    24    10  2012    18    2      384.9     0.0      0.0    0.0    0.0    0.0      0.0      0.0    2.50      1.3      1.3   100      0.8      0.8   100      2.1     2.1    100
    25    10  2012    19    2      383.7     0.0      0.0    0.0    0.0    0.0      0.0      0.0    2.50      0.9      0.5    53      0.7      0.7   100      1.6     1.2     74
    26    10  2012    20    2      382.3     0.0      0.0    0.0    0.0    0.0      0.0      0.0    2.50      1.0      0.1    13      1.3      1.3   100      2.3     1.4     62
    27    10  2012    21    2      381.5     0.0      0.0    0.0    0.0    0.0      0.0      0.0    2.50      0.4      0.0    12      0.8      0.8   100      1.2     0.8     70
    28    10  2012    22    2      380.5     0.0      0.0    0.0    0.0    0.0      0.0      0.0    2.50      0.3      0.0    11      0.9      0.9   100      1.3     1.0     76
    29    10  2012    23    2      380.4     1.3      0.0    0.0    1.3    0.0      0.0      0.0    2.50      0.3      0.3   100      1.1      1.1   100      1.4     1.4    100
    30    10  2012    24    2      378.6     0.0      0.0    0.0    0.0    0.0      0.0      0.0    2.50      0.3      0.3   100      1.5      1.5   100      1.8     1.8    100
    31    10  2012    25    2      376.5     0.0      0.0    0.0    0.0    0.0      0.0      0.0    2.50      0.3      0.3   100      1.8      1.8   100      2.1     2.1    100
     1    11  2012    26    2      375.2     0.0      0.0    0.0    0.0    0.0      0.0      0.0    2.50      0.1      0.1   100      1.2      1.2   100      1.3     1.3    100
     2    11  2012    27    2      373.4     0.0      0.0    0.0    0.0    0.0      0.0      0.0    2.50      0.2      0.2   100      1.7      1.7   100      1.8     1.8    100
     3    11  2012    28    2      370.0     0.0      0.0    0.0    0.0    0.0      0.0      0.0    2.50      0.3      0.1    49      3.2      3.2   100      3.5     3.3     96
     4    11  2012    29    2      368.7     0.0      0.0    0.0    0.0    0.0      0.0      0.0    2.50      0.1      0.0     6      1.3      1.3   100      1.4     1.3     93
     5    11  2012    30    2      367.4     0.0      0.0    0.0    0.0    0.0      0.0      0.0    2.50      0.1      0.0     5      1.3      1.3   100      1.4     1.3     93
     6    11  2012    31    2      366.2     0.0      0.0    0.0    0.0    0.0      0.0      0.0    2.50      0.1      0.0     5      1.2      1.2   100      1.3     1.2     94
     7    11  2012    32    2      368.0     3.0      0.0    0.0    3.0    0.0      0.0      0.0    2.50      0.1      0.1   100      1.1      1.1   100      1.2     1.2    100
     8    11  2012    33    2      366.6     0.0      0.0    0.0    0.0    0.0      0.0      0.0    2.50      0.1      0.1   100      1.3      1.3   100      1.4     1.4    100
     9    11  2012    34    2      365.5     0.0      0.0    0.0    0.0    0.0      0.0      0.0    2.50      0.0      0.0   100      1.0      1.0   100      1.1     1.1    100
    10    11  2012    35    2      365.0     1.1      0.0    0.0    1.1    0.0      0.0      0.0    2.50      0.1      0.1   100      1.5      1.5   100      1.5     1.5    100
    11    11  2012    36    2      363.5     0.0      0.0    0.0    0.0    0.0      0.0      0.0    2.50      0.1      0.1   100      1.5      1.5   100      1.5     1.5    100
    12    11  2012    37    2      362.0     0.0      0.0    0.0    0.0    0.0      0.0      0.0    2.50      0.1      0.1   100      1.5      1.5   100      1.5     1.5    100
    13    11  2012    38    2      360.2     0.0      0.0    0.0    0.0    0.0      0.0      0.0    2.50      0.1      0.1   100      1.7      1.7   100      1.7     1.7    100
    14    11  2012    39    2      359.3     0.0      0.0    0.0    0.0    0.0      0.0      0.0    2.50      0.0      0.0   100      1.0      1.0   100      1.0     1.0    100
    15    11  2012    40    2      358.5     0.4      0.0    0.0    0.4    0.0      0.0      0.0    2.50      0.0      0.0   100      1.2      1.2   100      1.2     1.2    100
    16    11  2012    41    2      356.9     0.0      0.0    0.0    0.0    0.0      0.0      0.0    2.50      0.0      0.0   100      1.5      1.5   100      1.5     1.5    100
    17    11  2012    42    2      356.0     0.0      0.0    0.0    0.0    0.0      0.0      0.0    2.50      0.0      0.0   100      1.0      1.0   100      1.0     1.0    100
    18    11  2012    43    2      354.0     0.0      0.0    0.0    0.0    0.0      0.0      0.0    2.50      0.0      0.0   100      1.9      1.9   100      2.0     2.0    100
    19    11  2012    44    2      352.6     0.0      0.0    0.0    0.0    0.0      0.0      0.0    2.50      0.0      0.0   100      1.4      1.4   100      1.4     1.4    100
    20    11  2012    45    2      351.6     0.0      0.0    0.0    0.0    0.0      0.0      0.0    2.50      0.0      0.0   100      1.0      1.0   100      1.0     1.0    100
    21    11  2012    46    2      350.5     0.0      0.0    0.0    0.0    0.0      0.0      0.0    2.50      0.0      0.0   100      1.1      1.1   100      1.1     1.1    100
    22    11  2012    47    2      348.3     0.0      0.0    0.0    0.0    0.0      0.0      0.0    2.50      0.0      0.0   100      2.1      2.1   100      2.2     2.2    100
    23    11  2012    48    2      346.8     0.0      0.0    0.0    0.0    0.0      0.0      0.0    2.50      0.0      0.0   100      1.5      1.5   100      1.5     1.5    100
    24    11  2012    49    2      345.7     0.0      0.0    0.0    0.0    0.0      0.0      0.0    2.50      0.0      0.0   100      1.1      1.1   100      1.1     1.1    100
    25    11  2012    50    2      423.8     4.7     75.0    0.0   79.7    0.0      0.0      0.0    2.50      0.0      0.0   100      1.6      1.6   100      1.6     1.6    100
    26    11  2012    51    2      421.3     0.0      0.0    0.0    0.0    0.0      1.4      0.0    2.50      0.0      0.0   100      1.1      1.1   100      1.1     1.1    100
    27    11  2012    52    2      416.5     0.0      0.0    0.0    0.0    0.0      3.4      0.0    2.50      0.0      0.0   100      1.4      1.4   100      1.4     1.4    100
    28    11  2012    53    2      411.5     0.0      0.0    0.0    0.0    0.0      3.4      0.0    2.50      0.0      0.0   100      1.6      1.6   100      1.6     1.6    100
    29    11  2012    54    2      408.8     0.0      0.0    0.0    0.0    0.0      2.1      0.0    2.50      0.0      0.0   100      0.6      0.6   100      0.7     0.7    100
    30    11  2012    55    2      407.1     0.0      0.0    0.0    0.0    0.0      0.9      0.0    2.50      0.0      0.0   100      0.7      0.7   100      0.8     0.8    100
     1    12  2012    56    2      405.8     0.0      0.0    0.0    0.0    0.0      0.4      0.0    2.50      0.0      0.0   100      0.9      0.9   100      0.9     0.9    100
     2    12  2012    57    2      404.9     0.0      0.0    0.0    0.0    0.0      0.1      0.0    2.50      0.0      0.0   100      0.7      0.7   100      0.8     0.8    100
     3    12  2012    58    2      403.5     0.0      0.0    0.0    0.0    0.0      0.1      0.0    2.50      0.0      0.0   100      1.4      1.4   100      1.4     1.4    100
     4    12  2012    59    2      402.2     0.0      0.0    0.0    0.0    0.0      0.0      0.0    2.50      0.0      0.0   100      1.3      1.3   100      1.3     1.3    100
     5    12  2012    60    2      401.0     0.0      0.0    0.0    0.0    0.0      0.0      0.0    2.50      0.0      0.0   100      1.2      1.2   100      1.2     1.2    100
     6    12  2012    61    2      399.3     0.0      0.0    0.0    0.0    0.0      0.0      0.0    2.50      0.0      0.0   100      1.6      1.6   100      1.6     1.6    100
     7    12  2012    62    2      398.5     0.0      0.0    0.0    0.0    0.0      0.0      0.0    2.50      0.0      0.0   100      0.8      0.8   100      0.9     0.9    100
     8    12  2012    63    2      396.9     0.0      0.0    0.0    0.0    0.0      0.0      0.0    2.50      0.0      0.0   100      1.6      1.6   100      1.6     1.6    100
     9    12  2012    64    2      396.1     0.0      0.0    0.0    0.0    0.0      0.0      0.0    2.50      0.0      0.0   100      0.7      0.7   100      0.8     0.8    100
    10    12  2012    65    2      395.3     0.0      0.0    0.0    0.0    0.0      0.0      0.0    2.50      0.0      0.0   100      0.8      0.8   100      0.9     0.9    100
    11    12  2012    66    2      394.6     0.0      0.0    0.0    0.0    0.0      0.0      0.0    2.50      0.0      0.0   100      0.6      0.6   100      0.6     0.6    100
    12    12  2012    67    2      394.0     0.0      0.0    0.0    0.0    0.0      0.0      0.0    2.50      0.0      0.0   100      0.6      0.6   100      0.6     0.6    100
    13    12  2012    68    2      393.3     0.0      0.0    0.0    0.0    0.0      0.0      0.0    2.50      0.0      0.0   100      0.6      0.6   100      0.6     0.6    100
    14    12  2012    69    2      392.7     0.0      0.0    0.0    0.0    0.0      0.0      0.0    2.50      0.0      0.0   100      0.6      0.6   100      0.6     0.6    100
    15    12  2012    70    2      392.2     0.0      0.0    0.0    0.0    0.0      0.0      0.0    2.50      0.0      0.0   100      0.5      0.5   100      0.5     0.5    100
    16    12  2012    71    2      391.6     0.0      0.0    0.0    0.0    0.0      0.0      0.0    2.50      0.0      0.0   100      0.5      0.5   100      0.5     0.5    100
    17    12  2012    72    2      390.6     0.0      0.0    0.0    0.0    0.0      0.0      0.0    2.50      0.0      0.0   100      1.0      1.0   100      1.1     1.1    100
    18    12  2012    73    2      389.7     0.0      0.0    0.0    0.0    0.0      0.0      0.0    2.50      0.0      0.0   100      0.8      0.8   100      0.8     0.8    100
    19    12  2012    74    2      389.1     0.0      0.0    0.0    0.0    0.0      0.0      0.0    2.50      0.0      0.0   100      0.6      0.6   100      0.6     0.6    100
    20    12  2012    75    2      390.1     1.5      0.0    0.0    1.5    0.0      0.0      0.0    2.50      0.0      0.0   100      0.5      0.5   100      0.5     0.5    100
    21    12  2012    76    2      389.1     0.0      0.0    0.0    0.0    0.0      0.0      0.0    2.50      0.0      0.0   100      0.9      0.9   100      0.9     0.9    100
    22    12  2012    77    2      388.0     0.0      0.0    0.0    0.0    0.0      0.0      0.0    2.50      0.0      0.0   100      1.1      1.1   100      1.2     1.2    100
    23    12  2012    78    2      386.9     0.0      0.0    0.0    0.0    0.0      0.0      0.0    2.50      0.0      0.0   100      1.0      1.0   100      1.0     1.0    100
    24    12  2012    79    2      386.2     0.0      0.0    0.0    0.0    0.0      0.0      0.0    2.50      0.0      0.0   100      0.7      0.7   100      0.7     0.7    100
    25    12  2012    80    2      385.6     0.0      0.0    0.0    0.0    0.0      0.0      0.0    2.50      0.0      0.0   100      0.6      0.6   100      0.6     0.6    100
    26    12  2012    81    2      384.8     0.0      0.0    0.0    0.0    0.0      0.0      0.0    2.50      0.0      0.0   100      0.7      0.7   100      0.7     0.7    100
    27    12  2012    82    2      384.3     0.0      0.0    0.0    0.0    0.0      0.0      0.0    2.50      0.0      0.0   100      0.5      0.5   100      0.5     0.5    100
    28    12  2012    83    2      383.5     0.0      0.0    0.0    0.0    0.0      0.0      0.0    2.50      0.0      0.0   100      0.8      0.8   100      0.8     0.8    100
    29    12  2012    84    2      381.9     0.0      0.0    0.0    0.0    0.0      0.0      0.0    2.50      0.0      0.0   100      1.5      1.5   100      1.6     1.6    100
    30    12  2012    85    2      380.7     0.0      0.0    0.0    0.0    0.0      0.0      0.0    2.50      0.0      0.0   100      1.2      1.2   100      1.2     1.2    100
    31    12  2012    86    2      379.5     0.0      0.0    0.0    0.0    0.0      0.0      0.0    2.50      0.0      0.0   100      1.1      1.1   100      1.1     1.1    100
     1     1  2013    87    2      378.1     0.0      0.0    0.0    0.0    0.0      0.0      0.0    2.50      0.0      0.0   100      1.4      1.4   100      1.5     1.5    100
     2     1  2013    88    2      377.3     0.0      0.0    0.0    0.0    0.0      0.0      0.0    2.50      0.0      0.0   100      0.8      0.8   100      0.8     0.8    100
     3     1  2013    89    2      376.1     0.0      0.0    0.0    0.0    0.0      0.0      0.0    2.50      0.0      0.0   100      1.1      1.1   100      1.1     1.1    100
     4     1  2013    90    2      375.5     0.0      0.0    0.0    0.0    0.0      0.0      0.0    2.50      0.0      0.0   100      0.6      0.6   100      0.6     0.6    100
     5     1  2013    91    2      374.6     0.0      0.0    0.0    0.0    0.0      0.0      0.0    2.50      0.0      0.0   100      0.9      0.9   100      0.9     0.9    100
     6     1  2013    92    2      374.1     0.0      0.0    0.0    0.0    0.0      0.0      0.0    2.50      0.0      0.0   100      0.5      0.5   100      0.5     0.5    100
     7     1  2013    93    2      373.4     0.0      0.0    0.0    0.0    0.0      0.0      0.0    2.50      0.0      0.0   100      0.6      0.6   100      0.6     0.6    100
     8     1  2013    94    2      372.1     0.0      0.0    0.0    0.0    0.0      0.0      0.0    2.50      0.0      0.0   100      1.3      1.3   100      1.3     1.3    100
     9     1  2013    95    2      371.4     0.0      0.0    0.0    0.0    0.0      0.0      0.0    2.50      0.0      0.0   100      0.7      0.7   100      0.7     0.7    100
    10     1  2013    96    2      370.5     0.0      0.0    0.0    0.0    0.0      0.0      0.0    2.50      0.0      0.0   100      0.9      0.9   100      0.9     0.9    100
    11     1  2013    97    2      368.9     0.0      0.0    0.0    0.0    0.0      0.0      0.0    2.50      0.0      0.0   100      1.5      1.5   100      1.5     1.5    100
    12     1  2013    98    2      368.2     0.0      0.0    0.0    0.0    0.0      0.0      0.0    2.50      0.0      0.0   100      0.7      0.7   100      0.7     0.7    100
    13     1  2013    99    2      367.5     0.0      0.0    0.0    0.0    0.0      0.0      0.0    2.50      0.0      0.0   100      0.7      0.7   100      0.7     0.7    100
    14     1  2013   100    2      366.5     0.0      0.0    0.0    0.0    0.0      0.0      0.0    2.50      0.0      0.0   100      1.0      1.0   100      1.0     1.0    100
    15     1  2013   101    2      365.0     0.0      0.0    0.0    0.0    0.0      0.0      0.0    2.50      0.0      0.0   100      1.5      1.5   100      1.5     1.5    100
    16     1  2013   102    2      363.4     0.0      0.0    0.0    0.0    0.0      0.0      0.0    2.50      0.0      0.0   100      1.5      1.5   100      1.5     1.5    100
    17     1  2013   103    2      362.3     0.0      0.0    0.0    0.0    0.0      0.0      0.0    2.50      0.0      0.0   100      1.1      1.1   100      1.1     1.1    100
    18     1  2013   104    2      361.6     0.0      0.0    0.0    0.0    0.0      0.0      0.0    2.50      0.0      0.0   100      0.7      0.7   100      0.7     0.7    100
    19     1  2013   105    2      360.8     0.0      0.0    0.0    0.0    0.0      0.0      0.0    2.50      0.0      0.0   100      0.8      0.8   100      0.8     0.8    100
    20     1  2013   106    2      360.1     0.2      0.0    0.0    0.2    0.0      0.0      0.0    2.50      0.0      0.0   100      0.9      0.9   100      0.9     0.9    100
    21     1  2013   107    2      359.0     0.0      0.0    0.0    0.0    0.0      0.0      0.0    2.50      0.0      0.0   100      1.1      1.1   100      1.1     1.1    100
    22     1  2013   108    2      357.6     0.0      0.0    0.0    0.0    0.0      0.0      0.0    2.50      0.0      0.0   100      1.3      1.3   100      1.3     1.3    100
    23     1  2013   109    2      356.1     0.0      0.0    0.0    0.0    0.0      0.0      0.0    2.50      0.0      0.0   100      1.5      1.5   100      1.5     1.5    100
    24     1  2013   110    2      354.1     0.0      0.0    0.0    0.0    0.0      0.0      0.0    2.50      0.0      0.0   100      2.0      2.0   100      2.0     2.0    100
    25     1  2013   111    2      352.0     0.0      0.0    0.0    0.0    0.0      0.0      0.0    2.50      0.0      0.0   100      2.1      2.1   100      2.1     2.1    100
    26     1  2013   112    2      350.4     0.0      0.0    0.0    0.0    0.0      0.0      0.0    2.50      0.0      0.0   100      1.6      1.6   100      1.6     1.6    100
    27     1  2013   113    2      349.2     0.0      0.0    0.0    0.0    0.0      0.0      0.0    2.50      0.0      0.0   100      1.2      1.2   100      1.2     1.2    100
    28     1  2013   114    2      347.8     0.0      0.0    0.0    0.0    0.0      0.0      0.0    2.50      0.0      0.0   100      1.4      1.4   100      1.4     1.4    100
    29     1  2013   115    2      346.7     0.0      0.0    0.0    0.0    0.0      0.0      0.0    2.50      0.0      0.0   100      1.1      1.1   100      1.1     1.1    100
    30     1  2013   116    2      345.3     0.0      0.0    0.0    0.0    0.0      0.0      0.0    2.50      0.0      0.0   100      1.4      1.4   100      1.4     1.4    100
    31     1  2013   117    2      344.3     0.0      0.0    0.0    0.0    0.0      0.0      0.0    2.50      0.0      0.0    41      1.0      1.0   100      1.0     1.0     99
     1     2  2013   118    2      343.4     0.0      0.0    0.0    0.0    0.0      0.0      0.0    2.50      0.0      0.0     3      0.9      0.9   100      0.9     0.9     99
     2     2  2013   119    2      342.6     0.0      0.0    0.0    0.0    0.0      0.0      0.0    2.50      0.0      0.0     3      0.8      0.8   100      0.8     0.8     99
     3     2  2013   120    2      344.5     2.6      0.0    0.0    2.6    0.0      0.0      0.0    2.50      0.0      0.0   100      0.7      0.7   100      0.7     0.7    100
     4     2  2013   121    2      344.9     1.0      0.0    0.0    1.0    0.0      0.0      0.0    2.50      0.0      0.0   100      0.6      0.6   100      0.6     0.6    100
     5     2  2013   122    2      344.0     0.2      0.0    0.0    0.2    0.0      0.0      0.0    2.50      0.0      0.0   100      1.2      1.2   100      1.2     1.2    100
     6     2  2013   123    2      343.1     0.0      0.0    0.0    0.0    0.0      0.0      0.0    2.50      0.0      0.0   100      0.9      0.9   100      0.9     0.9    100
     7     2  2013   124    2      342.2     0.0      0.0    0.0    0.0    0.0      0.0      0.0    2.50      0.0      0.0   100      0.9      0.9   100      0.9     0.9    100
     8     2  2013   125    2      346.7     5.1      0.0    0.0    5.1    0.0      0.0      0.0    2.50      0.0      0.0   100      0.6      0.6   100      0.6     0.6    100
     9     2  2013   126    2      345.8     0.0      0.0    0.0    0.0    0.0      0.0      0.0    2.50      0.0      0.0   100      0.9      0.9   100      0.9     0.9    100
    10     2  2013   127    2      344.7     0.0      0.0    0.0    0.0    0.0      0.0      0.0    2.50      0.0      0.0   100      1.1      1.1   100      1.1     1.1    100
    11     2  2013   128    2      345.1     1.1      0.0    0.0    1.1    0.0      0.0      0.0    2.50      0.0      0.0   100      0.7      0.7   100      0.7     0.7    100
    12     2  2013   129    2      344.0     0.0      0.0    0.0    0.0    0.0      0.0      0.0    2.50      0.0      0.0   100      1.2      1.2   100      1.2     1.2    100
    13     2  2013   130    2      342.9     0.0      0.0    0.0    0.0    0.0      0.0      0.0    2.50      0.0      0.0   100      1.1      1.1   100      1.1     1.1    100
    14     2  2013   131    2      341.3     0.0      0.0    0.0    0.0    0.0      0.0      0.0    2.50      0.0      0.0   100      1.5      1.5   100      1.6     1.6    100
    15     2  2013   132    2      339.8     0.0      0.0    0.0    0.0    0.0      0.0      0.0    2.50      0.0      0.0   100      1.5      1.5   100      1.6     1.6    100
    16     2  2013   133    2      338.7     0.0      0.0    0.0    0.0    0.0      0.0      0.0    2.50      0.0      0.0   100      1.1      1.1   100      1.1     1.1    100
    17     2  2013   134    2      337.4     0.0      0.0    0.0    0.0    0.0      0.0      0.0    2.50      0.0      0.0   100      1.3      1.3   100      1.3     1.3    100
    18     2  2013   135    2      343.9     7.4      0.0    0.0    7.4    0.0      0.0      0.0    2.50      0.0      0.0   100      1.0      1.0   100      1.0     1.0    100
    19     2  2013   136    2      343.4     0.3      0.0    0.0    0.3    0.0      0.0      0.0    2.50      0.0      0.0   100      0.8      0.8   100      0.8     0.8    100
    20     2  2013   137    2      342.3     0.0      0.0    0.0    0.0    0.0      0.0      0.0    2.50      0.0      0.0   100      1.1      1.1   100      1.1     1.1    100
    21     2  2013   138    2      341.1     0.0      0.0    0.0    0.0    0.0      0.0      0.0    2.50      0.0      0.0   100      1.2      1.2   100      1.3     1.3    100
    22     2  2013   139    2      339.2     0.0      0.0    0.0    0.0    0.0      0.0      0.0    2.50      0.0      0.0   100      1.8      1.8   100      1.8     1.8    100
    23     2  2013   140    2      337.6     0.0      0.0    0.0    0.0    0.0      0.0      0.0    2.50      0.0      0.0   100      1.6      1.6   100      1.6     1.6    100
    24     2  2013   141    2      335.8     0.0      0.0    0.0    0.0    0.0      0.0      0.0    2.50      0.0      0.0   100      1.7      1.7   100      1.7     1.7    100
    25     2  2013   142    2      334.8     0.0      0.0    0.0    0.0    0.0      0.0      0.0    2.50      0.0      0.0   100      1.0      1.0   100      1.1     1.1    100
    26     2  2013   143    2      333.0     0.0      0.0    0.0    0.0    0.0      0.0      0.0    2.50      0.0      0.0   100      1.7      1.7   100      1.7     1.7    100
    27     2  2013   144    2      331.1     0.0      0.0    0.0    0.0    0.0      0.0      0.0    2.50      0.0      0.0   100      1.9      1.9   100      1.9     1.9    100
    28     2  2013   145    2      328.6     0.0      0.0    0.0    0.0    0.0      0.0      0.0    2.50      0.0      0.0   100      2.5      2.5   100      2.5     2.5    100
     1     3  2013   146    2      326.2     0.0      0.0    0.0    0.0    0.0      0.0      0.0    2.50      0.0      0.0   100      2.5      2.5   100      2.5     2.5    100
     2     3  2013   147    2      324.3     0.0      0.0    0.0    0.0    0.0      0.0      0.0    2.50      0.0      0.0   100      1.8      1.8   100      1.8     1.8    100
     3     3  2013   148    2      321.8     0.0      0.0    0.0    0.0    0.0      0.0      0.0    2.50      0.0      0.0   100      2.5      2.5   100      2.6     2.6    100
     4     3  2013   149    2      319.3     0.0      0.0    0.0    0.0    0.0      0.0      0.0    2.50      0.0      0.0   100      2.4      2.4   100      2.5     2.5    100
     5     3  2013   150    2      316.8     0.0      0.0    0.0    0.0    0.0      0.0      0.0    2.50      0.0      0.0     5      2.4      2.4   100      2.5     2.4     99
     6     3  2013   151    2      312.8     0.0      0.0    0.0    0.0    0.0      0.0      0.0    2.50      0.0      0.0     3      4.0      4.0   100      4.1     4.0     99
     7     3  2013   152    2      309.3     0.0      0.0    0.0    0.0    0.0      0.0      0.0    2.50      0.0      0.0     3      3.5      3.5   100      3.5     3.5     99
     8     3  2013   153    2      305.5     0.0      0.0    0.0    0.0    0.0      0.0      0.0    2.50      0.0      0.0     3      3.8      3.8   100      3.9     3.8     99
     9     3  2013   154    2      301.7     0.0      0.0    0.0    0.0    0.0      0.0      0.0    2.50      0.0      0.0     3      3.8      3.8   100      3.9     3.8     99
    10     3  2013   155    2      297.8     0.0      0.0    0.0    0.0    0.0      0.0      0.0    2.50      0.0      0.0     3      3.9      3.9   100      4.0     3.9     99
    11     3  2013   156    2      295.8     0.0      0.0    0.0    0.0    0.0      0.0      0.0    2.50      0.0      0.0     3      2.0      2.0   100      2.0     2.0     99
    12     3  2013   157    2      294.0     0.0      0.0    0.0    0.0    0.0      0.0      0.0    2.50      0.0      0.0     3      1.8      1.8   100      1.8     1.8     99
    13     3  2013   158    2      291.7     0.0      0.0    0.0    0.0    0.0      0.0      0.0    2.50      0.0      0.0     3      2.3      2.3   100      2.4     2.3     99
    14     3  2013   159    2      289.8     0.0      0.0    0.0    0.0    0.0      0.0      0.0    2.50      0.0      0.0     3      1.9      1.9   100      2.0     1.9     99
    15     3  2013   160    2      287.7     0.0      0.0    0.0    0.0    0.0      0.0      0.0    2.50      0.0      0.0     3      2.0      2.0   100      2.1     2.0     99
    16     3  2013   161    2      286.1     0.0      0.0    0.0    0.0    0.0      0.0      0.0    2.50      0.0      0.0     3      1.6      1.6   100      1.6     1.6     99
    17     3  2013   162    2      283.1     0.0      0.0    0.0    0.0    0.0      0.0      0.0    2.50      0.0      0.0     3      3.0      3.0   100      3.1     3.0     99
    18     3  2013   163    2      280.3     0.0      0.0    0.0    0.0    0.0      0.0      0.0    2.50      0.0      0.0     3      2.8      2.8   100      2.8     2.8     99
    19     3  2013   164    2      277.1     0.0      0.0    0.0    0.0    0.0      0.0      0.0    2.50      0.0      0.0     3      3.2      3.2   100      3.3     3.2     99
    20     3  2013   165    2      273.1     0.0      0.0    0.0    0.0    0.0      0.0      0.0    2.50      0.1      0.0     3      4.0      4.0   100      4.1     4.0     99
    21     3  2013   166    2      271.1     0.1      0.0    0.0    0.1    0.0      0.0      0.0    2.50      0.0      0.0   100      2.0      2.0   100      2.0     2.0    100
    22     3  2013   167    2      268.1     0.0      0.0    0.0    0.0    0.0      0.0      0.0    2.50      0.0      0.0   100      3.0      3.0   100      3.1     3.1    100
    23     3  2013   168    2      265.3     0.0      0.0    0.0    0.0    0.0      0.0      0.0    2.50      0.0      0.0   100      2.7      2.7   100      2.8     2.8    100
    24     3  2013   169    2      261.8     0.0      0.0    0.0    0.0    0.0      0.0      0.0    2.50      0.0      0.0     8      3.5      3.4    99      3.5     3.5     98
    25     3  2013   170    2      260.1     0.1      0.0    0.0    0.1    0.0      0.0      0.0    2.50      0.0      0.0   100      1.8      1.8   100      1.8     1.8    100
    26     3  2013   171    2      260.8     3.3      0.0    0.0    3.3    0.0      0.0      0.0    2.50      0.0      0.0   100      2.6      2.6   100      2.6     2.6    100
    27     3  2013   172    2      257.6     0.0      0.0    0.0    0.0    0.0      0.0      0.0    2.50      0.0      0.0   100      3.3      3.2    97      3.3     3.2     97
    28     3  2013   173    2      254.0     0.0      0.0    0.0    0.0    0.0      0.0      0.0    2.50      0.0      0.0   100      3.9      3.5    90      3.9     3.6     90
    29     3  2013   174    2      251.3     0.0      0.0    0.0    0.0    0.0      0.0      0.0    2.50      0.0      0.0   100      2.9      2.7    94      2.9     2.8     94
    30     3  2013   175    2      248.3     0.0      0.0    0.0    0.0    0.0      0.0      0.0    2.50      0.0      0.0   100      3.3      3.0    88      3.4     3.0     89
    31     3  2013   176    2      246.2     0.0      0.0    0.0    0.0    0.0      0.0      0.0    2.50      0.0      0.0   100      2.2      2.0    94      2.2     2.1     94
     1     4  2013   177    2      243.3     0.0      0.0    0.0    0.0    0.0      0.0      0.0    2.50      0.0      0.0   100      3.4      2.9    84      3.5     2.9     84
     2     4  2013   178    2      241.2     0.0      0.0    0.0    0.0    0.0      0.0      0.0    2.50      0.0      0.0   100      2.4      2.1    88      2.5     2.2     88
     3     4  2013   179    3      238.7     0.0      0.0    0.0    0.0    0.0      0.0      0.0    2.50      0.0      0.0   100      3.0      2.4    82      3.0     2.5     82
     4     4  2013   180    3      239.1     1.9      0.0    0.0    1.9    0.0      0.0      0.0    2.50      0.0      0.0   100      1.6      1.5    91      1.6     1.5     91
     5     4  2013   181    3      239.0     2.1      0.0    0.0    2.1    0.0      0.0      0.0    2.50      0.0      0.0   100      2.5      2.1    85      2.5     2.2     85
     6     4  2013   182    3      236.7     0.0      0.0    0.0    0.0    0.0      0.0      0.0    2.50      0.0      0.0   100      2.8      2.3    82      2.8     2.3     82
     7     4  2013   183    3      234.2     0.0      0.0    0.0    0.0    0.0      0.0      0.0    2.50      0.0      0.0   100      3.2      2.5    77      3.3     2.5     77
     8     4  2013   184    3      232.0     0.0      0.0    0.0    0.0    0.0      0.0      0.0    2.50      0.0      0.0   100      2.8      2.1    77      2.8     2.2     78
     9     4  2013   185    3      229.6     0.0      0.0    0.0    0.0    0.0      0.0      0.0    2.50      0.0      0.0   100      3.4      2.4    72      3.4     2.5     73
    10     4  2013   186    3      227.3     0.0      0.0    0.0    0.0    0.0      0.0      0.0    2.50      0.0      0.0   100      3.0      2.2    72      3.1     2.2     72
    11     4  2013   187    3      224.8     0.0      0.0    0.0    0.0    0.0      0.0      0.0    2.50      0.0      0.0   100      3.7      2.5    67      3.8     2.5     67
    12     4  2013   188    3      222.4     0.0      0.0    0.0    0.0    0.0      0.0      0.2    2.50      0.1      0.1   100      4.0      2.5    64      4.0     2.6     64
    13     4  2013   189    3      220.0     0.0      0.0    0.0    0.0    0.0      0.0      0.3    2.50      0.1      0.1   100      4.3      2.6    61      4.3     2.6     61
    14     4  2013   190    3      217.6     0.0      0.0    0.0    0.0    0.0      0.0      0.4    2.50      0.1      0.1   100      5.0      2.8    56      5.1     2.9     57
    15     4  2013   191    3      215.3     0.0      0.0    0.0    0.0    0.0      0.0      0.3    2.50      0.1      0.1   100      4.4      2.5    56      4.5     2.5     57
    16     4  2013   192    3      213.5     0.0      0.0    0.0    0.0    0.0      0.0      0.8    2.50      0.1      0.1   100      4.8      2.6    53      4.9     2.7     54
    17     4  2013   193    4      211.4     0.0      0.0    0.0    0.0    0.0      0.0      0.3    2.50      0.1      0.1   100      4.2      2.3    54      4.3     2.3     54
    18     4  2013   194    4      210.1     0.0      0.0    0.0    0.0    0.0      0.0      0.9    2.50      0.1      0.1   100      3.9      2.1    54      3.9     2.1     55
    19     4  2013   195    4      278.9     1.9     68.0    0.0   69.9    0.0      0.0      0.7    2.50      0.0      0.0   100      1.8      1.8   100      1.8     1.8    100
    20     4  2013   196    4      277.7     0.0      0.0    0.0    0.0    0.0      0.0      0.3    2.50      0.0      0.0   100      1.4      1.4   100      1.4     1.4    100
    21     4  2013   197    4      276.0     0.0      0.0    0.0    0.0    0.0      0.0      0.1    2.50      0.0      0.0   100      1.7      1.7   100      1.8     1.8    100
    22     4  2013   198    4      276.5     2.0      0.0    0.0    2.0    0.0      0.0      0.0    2.50      0.0      0.0   100      1.5      1.5   100      1.5     1.5    100
    23     4  2013   199    4      273.7     0.0      0.0    0.0    0.0    0.0      0.0      0.0    2.50      0.0      0.0   100      2.8      2.8   100      2.8     2.8    100
    24     4  2013   200    4      269.9     0.0      0.0    0.0    0.0    0.0      0.0      0.0    2.50      0.0      0.0   100      3.7      3.7   100      3.8     3.8    100
    25     4  2013   201    4      265.8     0.0      0.0    0.0    0.0    0.0      0.0      0.0    2.50      0.1      0.1   100      4.2      4.1    96      4.3     4.2     96
    26     4  2013   202    4      261.6     0.0      0.0    0.0    0.0    0.0      0.0      0.0    2.50      0.1      0.1   100      4.5      4.1    92      4.6     4.2     92
    27     4  2013   203    4      257.4     0.0      0.0    0.0    0.0    0.0      0.0      0.0    2.50      0.1      0.1   100      4.8      4.1    87      4.8     4.2     87
    28     4  2013   204    4      254.6     0.0      0.0    0.0    0.0    0.0      0.0      0.0    2.50      0.0      0.0   100      2.8      2.7    96      2.9     2.8     96
    29     4  2013   205    4      258.3     5.7      0.0    0.0    5.7    0.0      0.0      0.0    2.50      0.0      0.0   100      2.0      2.0   100      2.0     2.0    100
    30     4  2013   206    4      255.3     0.0      0.0    0.0    0.0    0.0      0.0      0.0    2.50      0.6      0.6   100      2.7      2.4    90      3.3     3.0     92
     1     5  2013   207    4      251.4     0.0      0.0    0.0    0.0    0.0      0.0      0.0    2.50      3.9      3.9   100      0.0      0.0   100      3.9     3.9    100
     2     5  2013   208   -9      250.0     0.0      0.0    0.0    0.0    0.0      0.0      0.0    2.50      2.3      1.4    63      0.0      0.0   100      2.3     1.4     63
     3     5  2013    -9    0      249.6     0.0      0.0    0.0    0.0    0.0      0.0      0.0    2.50      2.1      0.4    18      0.0      0.0   100      2.1     0.4     18
     4     5  2013    -9    0      249.4     0.0      0.0    0.0    0.0    0.0      0.0      0.0    2.50      1.2      0.2    17      0.0      0.0   100      1.2     0.2     17
     5     5  2013    -9    0      251.1     3.0      0.0    0.0    3.0    0.0      0.0      0.0    2.50      1.3      1.3   100      0.0      0.0   100      1.3     1.3    100
     6     5  2013    -9    0      254.9     4.6      0.0    0.0    4.6    0.0      0.0      0.0    2.50      0.8      0.8   100      0.0      0.0   100      0.8     0.8    100
     7     5  2013    -9    0      322.3     0.3     68.0    0.0   68.3    0.0      0.0      0.0    2.50      0.8      0.8   100      0.0      0.0   100      0.8     0.8    100
     8     5  2013    -9    0      321.7     0.2      0.0    0.0    0.2    0.0      0.0      0.0    2.50      0.8      0.8    97      0.0      0.0   100      0.8     0.8     97
     9     5  2013    -9    0      320.7     0.0      0.0    0.0    0.0    0.0      0.0      0.0    2.50      1.5      1.0    69      0.0      0.0   100      1.5     1.0     69
    10     5  2013    -9    0      319.5     0.0      0.0    0.0    0.0    0.0      0.0      0.0    2.50      2.0      1.2    59      0.0      0.0   100      2.0     1.2     59
    11     5  2013    -9    0      318.2     0.0      0.0    0.0    0.0    0.0      0.0      0.0    2.50      2.5      1.3    52      0.0      0.0   100      2.5     1.3     52
    12     5  2013    -9    0      317.1     0.0      0.0    0.0    0.0    0.0      0.0      0.0    2.50      2.3      1.1    47      0.0      0.0   100      2.3     1.1     47
    13     5  2013    -9    0      316.3     0.0      0.0    0.0    0.0    0.0      0.0      0.0    2.50      1.9      0.8    43      0.0      0.0   100      1.9     0.8     43
    14     5  2013    -9    0      315.9     0.0      0.0    0.0    0.0    0.0      0.0      0.0    2.50      1.1      0.4    40      0.0      0.0   100      1.1     0.4     40
    15     5  2013    -9    0      316.6     2.1      0.0    0.0    2.1    0.0      0.0      0.0    2.50      1.4      1.4   100      0.0      0.0   100      1.4     1.4    100
    16     5  2013    -9    0      321.5     6.0      0.0    0.0    6.0    0.0      0.0      0.0    2.50      1.1      1.1   100      0.0      0.0   100      1.1     1.1    100
    17     5  2013    -9    0      342.1    21.4      0.0    0.0   21.4    0.0      0.0      0.0    2.50      0.8      0.8   100      0.0      0.0   100      0.8     0.8    100
    18     5  2013    -9    0      341.1     1.0      0.0    0.0    1.0    0.0      0.0      0.0    2.50      2.1      2.0    98      0.0      0.0   100      2.1     2.0     98
    19     5  2013    -9    0      339.7     0.0      0.0    0.0    0.0    0.0      0.0      0.0    2.50      2.0      1.4    71      0.0      0.0   100      2.0     1.4     71
    20     5  2013    -9    0      338.2     0.0      0.0    0.0    0.0    0.0      0.0      0.0    2.50      2.5      1.5    59      0.0      0.0   100      2.5     1.5     59
    21     5  2013    -9    0      336.9     0.0      0.0    0.0    0.0    0.0      0.0      0.0    2.50      2.4      1.2    51      0.0      0.0   100      2.4     1.2     51
    22     5  2013    -9    0      335.7     0.0      0.0    0.0    0.0    0.0      0.0      0.0    2.50      2.5      1.2    46      0.0      0.0   100      2.5     1.2     46
    23     5  2013    -9    0      334.8     0.0      0.0    0.0    0.0    0.0      0.0      0.0    2.50      2.3      1.0    42      0.0      0.0   100      2.3     1.0     42
    24     5  2013    -9    0      346.9    13.6      0.0    0.0   13.6    0.0      0.0      0.0    2.50      1.4      1.4   100      0.0      0.0   100      1.4     1.4    100
    25     5  2013    -9    0      429.2    83.2      0.0    0.0   83.2    0.0      0.0      0.0    2.50      0.9      0.9   100      0.0      0.0   100      0.9     0.9    100
    26     5  2013    -9    0      472.1    44.3      0.0    0.0   44.3    0.0      0.0      0.0    2.50      1.4      1.4   100      0.0      0.0   100      1.4     1.4    100
    27     5  2013    -9    0      448.1     0.0      0.0    0.0    0.0    0.0     21.8      0.0    2.50      2.2      2.2   100      0.0      0.0   100      2.2     2.2    100
    28     5  2013    -9    0      432.0     6.5      0.0    0.0    6.5    0.0     21.3      0.0    2.50      1.2      1.2   100      0.0      0.0   100      1.2     1.2    100
    29     5  2013    -9    0      431.9    12.7      0.0    0.0   12.7    0.0     11.4      0.0    2.50      1.4      1.4   100      0.0      0.0   100      1.4     1.4    100
    30     5  2013    -9    0      424.3     0.0      0.0    0.0    0.0    0.0      6.5      0.0    2.50      1.1      1.1   100      0.0      0.0   100      1.1     1.1    100
    31     5  2013    -9    0      417.3     0.0      0.0    0.0    0.0    0.0      5.7      0.0    2.50      1.3      1.3   100      0.0      0.0   100      1.3     1.3    100
     1     6  2013    -9    0      410.8     0.0      0.0    0.0    0.0    0.0      4.1      0.0    2.50      2.4      2.4   100      0.0      0.0   100      2.4     2.4    100
     2     6  2013    -9    0      406.0     0.0      0.0    0.0    0.0    0.0      2.1      0.0    2.50      2.6      2.6   100      0.0      0.0   100      2.6     2.6    100
     3     6  2013    -9    0      403.1     0.0      0.0    0.0    0.0    0.0      0.9      0.0    2.50      2.3      2.1    91      0.0      0.0   100      2.3     2.1     91
     4     6  2013    -9    0      398.3     0.0      0.0    0.0    0.0    0.0      0.3      0.0    2.50      7.0      4.4    63      0.0      0.0   100      7.0     4.4     63
     5     6  2013    -9    0      394.9     0.1      0.0    0.0    0.1    0.0      0.1      0.0    2.50      5.7      3.4    59      0.0      0.0   100      5.7     3.4     59
     6     6  2013    -9    0      392.6     1.1      0.0    0.0    1.1    0.0      0.1      0.0    2.50      6.6      3.4    51      0.0      0.0   100      6.6     3.4     51
     7     6  2013    -9    0      390.6     0.0      0.0    0.0    0.0    0.0      0.0      0.0    2.50      6.4      2.0    31      0.0      0.0   100      6.4     2.0     31
     8     6  2013    -9    0      389.4     0.6      0.0    0.0    0.6    0.0      0.0      0.0    2.50      5.3      1.8    34      0.0      0.0   100      5.3     1.8     34
     9     6  2013    -9    0      398.3    12.1      0.0    0.0   12.1    0.0      0.0      0.0    2.50      3.2      3.2   100      0.0      0.0   100      3.2     3.2    100
    10     6  2013    -9    0      394.9     0.1      0.0    0.0    0.1    0.0      0.0      0.0    2.50      5.8      3.5    60      0.0      0.0   100      5.8     3.5     60
    11     6  2013    -9    0      392.4     0.0      0.0    0.0    0.0    0.0      0.0      0.0    2.50      6.1      2.5    41      0.0      0.0   100      6.1     2.5     41
    12     6  2013    -9    0      390.5     0.0      0.0    0.0    0.0    0.0      0.0      0.0    2.50      6.3      1.9    31      0.0      0.0   100      6.3     1.9     31
    13     6  2013    -9    0      388.7     0.0      0.0    0.0    0.0    0.0      0.0      0.0    2.50      7.3      1.8    24      0.0      0.0   100      7.3     1.8     24
    14     6  2013    -9    0      387.7     0.0      0.0    0.0    0.0    0.0      0.0      0.0    2.50      5.0      1.0    20      0.0      0.0   100      5.0     1.0     20
    15     6  2013    -9    0      386.5     0.0      0.0    0.0    0.0    0.0      0.0      0.0    2.50      6.9      1.2    17      0.0      0.0   100      6.9     1.2     17
    16     6  2013    -9    0      385.8     0.0      0.0    0.0    0.0    0.0      0.0      0.0    2.50      4.5      0.7    15      0.0      0.0   100      4.5     0.7     15
    17     6  2013    -9    0      384.9     0.0      0.0    0.0    0.0    0.0      0.0      0.0    2.50      6.7      0.9    14      0.0      0.0   100      6.7     0.9     14
    18     6  2013    -9    0      384.1     0.0      0.0    0.0    0.0    0.0      0.0      0.0    2.50      6.6      0.8    12      0.0      0.0   100      6.6     0.8     12
    19     6  2013    -9    0      383.6     0.0      0.0    0.0    0.0    0.0      0.0      0.0    2.50      4.6      0.5    11      0.0      0.0   100      4.6     0.5     11
    20     6  2013    -9    0      383.1     0.1      0.0    0.0    0.1    0.0      0.0      0.0    2.50      4.5      0.6    12      0.0      0.0   100      4.5     0.6     12
